data_
_symmetry_cell_setting           triclinic 
_symmetry_space_group_name_H-M   'P 1' 
_symmetry_Int_Tables_number      1 
loop_ 
_symmetry_equiv_pos_site_id 
_symmetry_equiv_pos_as_xyz 
1 x,y,z 
_cell_length_a             14.774011        
_cell_length_b             15.865568        
_cell_length_c             19.208900        
_cell_angle_alpha          91.894033        
_cell_angle_beta           89.794994        
_cell_angle_gamma          89.763739        
loop_  
_atom_site_label   
_atom_site_type_symbol  
_atom_site_fract_x  
_atom_site_fract_y  
_atom_site_fract_z 
 Cu0  Cu     0.006719     -0.002402      0.064256 
 Cu1  Cu    -0.007690     -0.002591     -0.070817 
 O2  O    -0.077032      0.103197     -0.052587 
 C3  C    -0.114098      0.118378      0.006205 
 O4  O    -0.097226      0.080422      0.061705 
 O5  O     0.108597      0.070843     -0.053795 
 C6  C     0.126171      0.108143      0.005807 
 O7  O     0.090734      0.093384      0.062324 
 O8  O    -0.123323     -0.073807     -0.062056 
 C9  C    -0.124355     -0.121125     -0.009025 
 O10  O    -0.081666     -0.107737      0.048719 
 O11  O     0.064650     -0.100683     -0.064890 
 C12  C     0.114651     -0.121898     -0.016274 
 O13  O     0.105257     -0.087581      0.043500 
 Cu14  Cu    -0.494087      0.499922      0.060911 
 Cu15  Cu     0.498215      0.491955     -0.076537 
 O16  O     0.383526     -0.430869     -0.063577 
 C17  C     0.375994     -0.390305     -0.006572 
 O18  O     0.422095     -0.403838      0.047504 
 O19  O    -0.422370     -0.410653     -0.056952 
 C20  C    -0.385392     -0.387450     -0.000941 
 O21  O    -0.397289     -0.418946      0.056498 
 O22  O     0.414292      0.395714     -0.070724 
 C23  C     0.381541      0.379190     -0.012969 
 O24  O     0.404062      0.417143      0.044951 
 O25  O    -0.395118      0.409726     -0.066968 
 C26  C    -0.378912      0.380296     -0.008218 
 O27  O    -0.413611      0.404452      0.053281 
 C28  C    -0.336297      0.236305      0.033483 
 C29  C    -0.313092      0.311902     -0.000249 
 C30  C    -0.226157      0.326325     -0.028324 
 C31  C    -0.164275      0.261298     -0.025324 
 C32  C    -0.185050      0.187715      0.009276 
 C33  C    -0.267465      0.174062      0.039829 
 O34  O    -0.209380      0.400321     -0.063327 
 C35  C    -0.126446      0.417558     -0.096752 
 C36  C    -0.057485      0.447896     -0.043039 
 C37  C     0.040175      0.450403     -0.071963 
 C38  C     0.110172      0.498530     -0.026808 
 O39  O    -0.284479      0.095481      0.067413 
 C40  C    -0.375750      0.082921      0.094290 
 C41  C    -0.396549      0.130843      0.163430 
 C42  C    -0.326670      0.122056      0.219785 
 C43  C    -0.370433      0.164973      0.286375 
 H44  H    -0.096320      0.265770     -0.049342 
 H45  H    -0.407324      0.232366      0.048036 
 H46  H    -0.428024      0.089877      0.055116 
 H47  H    -0.369297      0.017386      0.105809 
 H48  H    -0.111402      0.357621     -0.119046 
 H49  H    -0.129177      0.466571     -0.138193 
 H50  H    -0.402881      0.199385      0.155525 
 H51  H    -0.463227      0.113138      0.181988 
 H52  H    -0.074136     -0.483873     -0.030840 
 H53  H    -0.070262      0.417501      0.007325 
 H54  H     0.072413      0.388568     -0.075630 
 H55  H     0.035782      0.479633     -0.121749 
 H56  H    -0.317666      0.054155      0.234629 
 H57  H    -0.265325      0.152965      0.203238 
 H58  H    -0.314620      0.170435      0.326159 
 H59  H    -0.388894      0.229660      0.271872 
 H60  H    -0.425482      0.130634      0.306535 
 H61  H     0.177780     -0.499427     -0.055504 
 H62  H     0.091054     -0.432354     -0.017709 
 H63  H     0.121783      0.463445      0.026337 
 N64  N    -0.014929     -0.006995      0.318431 
 C65  C     0.050778     -0.063620      0.289957 
 C66  C    -0.100847     -0.035335      0.285166 
 C67  C     0.002111      0.081618      0.299102 
 C68  C    -0.096041     -0.015282      0.207628 
 H69  H    -0.103473     -0.104544      0.294081 
 H70  H    -0.159444     -0.007577      0.308303 
 C71  C     0.056101     -0.062544      0.206325 
 H72  H     0.116905     -0.040516      0.312136 
 H73  H     0.034885     -0.130392      0.309689 
 C74  C     0.019466      0.085341      0.216901 
 H75  H    -0.058031      0.121021      0.310301 
 H76  H     0.055136      0.110233      0.325830 
 H77  H     0.123321     -0.048382      0.188697 
 H78  H     0.033865     -0.121983      0.179187 
 H79  H    -0.130308     -0.068194      0.180427 
 H80  H    -0.140929      0.038592      0.196822 
 H81  H     0.089484      0.105681      0.202881 
 N82  N    -0.002301      0.006063      0.181260 
 H83  H    -0.017688      0.139866      0.197281 
 C84  C     0.193529      0.221865     -0.056592 
 C85  C     0.197125      0.175889      0.004058 
 C86  C     0.263468      0.188199      0.057916 
 C87  C     0.314891      0.257929      0.051358 
 C88  C     0.311134      0.310230     -0.006223 
 C89  C     0.252853      0.290589     -0.063608 
 O90  O     0.265026      0.133472      0.115960 
 C91  C     0.329034      0.142451      0.172001 
 C92  C     0.284225      0.100714      0.235280 
 C93  C     0.329607      0.119194      0.306161 
 C94  C     0.279267      0.075971      0.363869 
 O95  O     0.261605      0.342707     -0.119702 
 C96  C     0.241466      0.299528     -0.183812 
 C97  C     0.238574      0.361808     -0.244719 
 C98  C     0.217957      0.317756     -0.316277 
 C99  C     0.114226      0.304177     -0.334831 
 H100  H     0.365835      0.268823      0.091238 
 H101  H     0.137376      0.214611     -0.098033 
 H102  H     0.294795      0.251319     -0.196058 
 H103  H     0.175440      0.264942     -0.179984 
 H104  H     0.385232      0.097974      0.159093 
 H105  H     0.349242      0.205112      0.185758 
 H106  H     0.194396      0.415959     -0.229926 
 H107  H     0.307132      0.381322     -0.243859 
 H108  H     0.213868      0.120524      0.241225 
 H109  H     0.282308      0.032507      0.221097 
 H110  H     0.400212      0.102605      0.292659 
 H111  H     0.331413      0.188389      0.315598 
 H112  H     0.253852      0.357116     -0.357260 
 H113  H     0.258757      0.259328     -0.317459 
 H114  H     0.076696      0.363228     -0.341951 
 H115  H     0.104925      0.261298     -0.381674 
 H116  H     0.078654      0.270292     -0.293947 
 H117  H     0.292710      0.006476      0.362602 
 H118  H     0.296214      0.105715      0.420903 
 H119  H     0.206208      0.088832      0.356429 
 C120  C     0.249202     -0.187202      0.036347 
 C121  C     0.193372     -0.184083     -0.021771 
 C122  C     0.195596     -0.247320     -0.073484 
 C123  C     0.258670     -0.312261     -0.067526 
 C124  C     0.315505     -0.313822     -0.008023 
 C125  C     0.310235     -0.252142      0.045167 
 O126  O     0.136698     -0.243347     -0.127583 
 C127  C     0.124967     -0.317263     -0.170727 
 C128  C     0.032361     -0.308962     -0.208986 
 C129  C    -0.045982     -0.283814     -0.161159 
 C130  C    -0.135646     -0.277799     -0.198740 
 O131  O     0.364393     -0.251424      0.103411 
 C132  C     0.377321     -0.176261      0.146073 
 C133  C     0.463596     -0.185498      0.186296 
 C134  C    -0.451509     -0.186554      0.138831 
 C135  C    -0.366421     -0.185274      0.184992 
 H136  H     0.269838     -0.359870     -0.107503 
 H137  H     0.247654     -0.130786      0.076437 
 H138  H     0.390161     -0.120368      0.111688 
 H139  H     0.319336     -0.161355      0.179904 
 H140  H     0.169793     -0.321557     -0.215336 
 H141  H     0.134122     -0.371080     -0.137683 
 H142  H     0.469168     -0.135054      0.227095 
 H143  H     0.456575     -0.242304      0.212508 
 H144  H     0.041366     -0.258838     -0.246885 
 H145  H     0.017903     -0.367826     -0.238041 
 H146  H    -0.052378     -0.322663     -0.114337 
 H147  H    -0.031139     -0.224208     -0.135683 
 H148  H    -0.454528     -0.247000      0.106224 
 H149  H    -0.441819     -0.128319      0.108006 
 H150  H    -0.297586     -0.180483      0.159036 
 H151  H    -0.366481     -0.122841      0.213680 
 H152  H    -0.367747     -0.240025      0.220775 
 H153  H    -0.149382     -0.338392     -0.226024 
 H154  H    -0.192436     -0.258300     -0.168894 
 H155  H    -0.122652     -0.231884     -0.236911 
 N156  N     0.496797      0.494643      0.312690 
 C157  C    -0.419431     -0.452836      0.292541 
 C158  C    -0.491133      0.412730      0.280401 
 C159  C     0.414047     -0.463915      0.284370 
 C160  C    -0.480665      0.422776      0.200910 
 H161  H    -0.435120      0.386123      0.307545 
 H162  H     0.449156      0.375105      0.292564 
 C163  C    -0.413686     -0.442456      0.210831 
 H164  H    -0.417603     -0.391058      0.321102 
 H165  H    -0.357577     -0.486741      0.306439 
 C166  C     0.425021     -0.456123      0.202971 
 H167  H     0.354628      0.493059      0.293481 
 H168  H     0.405193     -0.399552      0.307276 
 H169  H    -0.420594     -0.378806      0.189462 
 H170  H    -0.353151     -0.459850      0.186572 
 H171  H    -0.410743      0.401018      0.184666 
 H172  H     0.470922      0.382530      0.176323 
 H173  H     0.421677     -0.387786      0.192252 
 N174  N    -0.487188     -0.488134      0.177344 
 H175  H     0.368556     -0.493004      0.177867 
 C176  C    -0.260185     -0.188200     -0.057790 
 C177  C    -0.188921     -0.193860     -0.013870 
 C178  C    -0.177871     -0.256692      0.033848 
 C179  C    -0.245076     -0.312794      0.041904 
 C180  C    -0.321221     -0.311476     -0.002415 
 C181  C    -0.333736     -0.246594     -0.051081 
 O182  O    -0.106509     -0.258459      0.081970 
 C183  C    -0.019560     -0.281384      0.048723 
 C184  C     0.057597     -0.286677      0.097746 
 C185  C     0.052977     -0.340277      0.160898 
 C186  C     0.068243     -0.436216      0.149274 
 O187  O    -0.401549     -0.237723     -0.101081 
 C188  C    -0.492883     -0.212601     -0.082720 
 C189  C     0.489613     -0.119216     -0.088720 
 C190  C     0.395946     -0.086002     -0.071474 
 C191  C     0.396083      0.009765     -0.072583 
 H192  H    -0.227674     -0.363579      0.074455 
 H193  H    -0.268599     -0.134178     -0.094491 
 H194  H     0.469183     -0.248065     -0.125937 
 H195  H     0.486431     -0.232095     -0.032314 
 H196  H    -0.029338     -0.342916      0.020978 
 H197  H     0.000067     -0.244291      0.005284 
 H198  H    -0.462153     -0.088638     -0.051034 
 H199  H    -0.497742     -0.097419     -0.141735 
 H200  H     0.108589     -0.316640      0.064069 
 H201  H     0.090820     -0.227393      0.108557 
 H202  H     0.095984     -0.313070      0.199693 
 H203  H    -0.016141     -0.336072      0.181224 
 H204  H     0.349418     -0.117289     -0.108909 
 H205  H     0.375611     -0.104718     -0.016427 
 H206  H     0.449230      0.036687     -0.042002 
 H207  H     0.411962      0.030972     -0.126812 
 H208  H     0.334886      0.040875     -0.055306 
 H209  H     0.139652     -0.453252      0.152831 
 H210  H     0.026243     -0.471083      0.184326 
 H211  H     0.042120     -0.458194      0.099600 
 Cu212  Cu    -0.003519      0.002248     -0.426214 
 Cu213  Cu    -0.008059      0.000536      0.436482 
 O214  O    -0.117500      0.068385      0.460641 
 C215  C    -0.131118      0.114520     -0.483008 
 O216  O    -0.091456      0.101719     -0.425188 
 O217  O     0.068645      0.106768      0.452311 
 C218  C     0.116751      0.124253     -0.495558 
 O219  O     0.107879      0.087179     -0.436340 
 O220  O    -0.085925     -0.099945      0.443296 
 C221  C    -0.128710     -0.111181     -0.499503 
 O222  O    -0.116032     -0.067779     -0.440476 
 O223  O     0.099129     -0.073465      0.449613 
 C224  C     0.106960     -0.116445     -0.494327 
 O225  O     0.069030     -0.094137     -0.434147 
 Cu226  Cu     0.492815     -0.493111     -0.434855 
 Cu227  Cu    -0.495905     -0.496562      0.429582 
 O228  O     0.398151     -0.412667      0.440934 
 C229  C     0.357097     -0.400055      0.499191 
 O230  O     0.372295     -0.445150     -0.447825 
 O231  O    -0.422222     -0.397463      0.446883 
 C232  C    -0.411892     -0.362985     -0.493561 
 O233  O    -0.454740     -0.378697     -0.438434 
 O234  O     0.414777      0.409176      0.438786 
 C235  C     0.398610      0.376945      0.497908 
 O236  O     0.441948      0.389319     -0.445200 
 O237  O    -0.390614      0.431261      0.432371 
 C238  C    -0.357653      0.413302      0.493257 
 O239  O    -0.376442      0.454679     -0.450919 
 C240  C    -0.279892      0.309746     -0.436079 
 C241  C    -0.291082      0.339206      0.495436 
 C242  C    -0.250859      0.300801      0.438090 
 C243  C    -0.204346      0.227280      0.451444 
 C244  C    -0.190411      0.192888     -0.484880 
 C245  C    -0.231652      0.233088     -0.425735 
 O246  O    -0.259730      0.328361      0.371867 
 C247  C    -0.181448      0.351235      0.333489 
 C248  C    -0.221565      0.355604      0.260840 
 C249  C    -0.181750      0.428728      0.217114 
 C250  C    -0.190350      0.415544      0.135776 
 O251  O    -0.219185      0.201951     -0.363948 
 C252  C    -0.291213      0.214575     -0.311339 
 C253  C    -0.283609      0.145767     -0.261032 
 C254  C    -0.372310      0.144975     -0.222425 
 C255  C    -0.357074      0.089145     -0.155586 
 H256  H    -0.167931      0.194459      0.404248 
 H257  H    -0.306971      0.347406     -0.391029 
 H258  H    -0.286101      0.283539     -0.291447 
 H259  H    -0.358656      0.211574     -0.335346 
 H260  H    -0.145399      0.408435      0.354997 
 H261  H    -0.132990      0.298823      0.343839 
 H262  H    -0.261236      0.083801     -0.284102 
 H263  H    -0.230953      0.166298     -0.221347 
 H264  H    -0.205371      0.293529      0.236378 
 H265  H    -0.297663      0.362315      0.264357 
 H266  H    -0.212080      0.487185      0.237082 
 H267  H    -0.107384      0.428728      0.231806 
 H268  H    -0.400840      0.203914     -0.206184 
 H269  H    -0.427809      0.113572     -0.254308 
 H270  H    -0.412466      0.095904     -0.114978 
 H271  H    -0.344814      0.024307     -0.169394 
 H272  H    -0.297770      0.110323     -0.126505 
 H273  H    -0.262135      0.420284      0.121926 
 H274  H    -0.146063      0.461427      0.109665 
 H275  H    -0.164965      0.354809      0.116087 
 N276  N    -0.013616     -0.006494     -0.186224 
 C277  C    -0.098696     -0.035435     -0.214476 
 C278  C    -0.002342      0.081300     -0.203376 
 C279  C     0.069119     -0.050404     -0.211075 
 C280  C     0.017833      0.083230     -0.283321 
 H281  H    -0.062782      0.116915     -0.188656 
 H282  H     0.053855      0.113322     -0.172134 
 C283  C    -0.091560     -0.027744     -0.295520 
 H284  H    -0.111682     -0.102262     -0.194261 
 H285  H    -0.156493     -0.004331     -0.189781 
 C286  C     0.067658     -0.057695     -0.291634 
 H287  H     0.130052     -0.019353     -0.194490 
 H288  H     0.068187     -0.115166     -0.193631 
 H289  H    -0.105048     -0.091639     -0.316298 
 H290  H    -0.149816      0.013086     -0.310969 
 H291  H    -0.031258      0.129849     -0.307828 
 H292  H     0.085616      0.096482     -0.294900 
 H293  H     0.054801     -0.119819     -0.314647 
 N294  N    -0.000630      0.000355     -0.315944 
 H295  H     0.132607     -0.039575     -0.312641 
 C296  C     0.262356      0.181860     -0.458769 
 C297  C     0.187149      0.193083      0.497595 
 C298  C     0.176062      0.265422      0.453644 
 C299  C     0.249503      0.321412      0.454273 
 C300  C     0.321704      0.309519      0.494340 
 C301  C     0.328706      0.242470     -0.461702 
 O302  O     0.097084      0.292663      0.426689 
 C303  C     0.083440      0.372452      0.399439 
 C304  C     0.109868      0.369617      0.321771 
 C305  C     0.065304      0.305344      0.277741 
 C306  C     0.089975      0.315257      0.198700 
 O307  O     0.411227      0.230909     -0.424073 
 C308  C     0.424894      0.164227     -0.374631 
 C309  C     0.472576      0.087732     -0.410056 
 C310  C    -0.452492      0.108239     -0.463467 
 C311  C    -0.480429      0.161244      0.475622 
 H312  H     0.249945      0.379953      0.425933 
 H313  H     0.267630      0.124122     -0.432631 
 H314  H     0.463044      0.190591     -0.330825 
 H315  H     0.360167      0.146585     -0.348764 
 H316  H     0.012729      0.396522      0.406612 
 H317  H     0.119844      0.417147      0.431106 
 H318  H    -0.498820      0.052106     -0.366969 
 H319  H     0.418050      0.043731     -0.434126 
 H320  H     0.088750      0.430325      0.302013 
 H321  H     0.181939      0.361960      0.316522 
 H322  H     0.093978      0.246867      0.294058 
 H323  H    -0.009335      0.299445      0.288287 
 H324  H    -0.396084      0.140535     -0.438231 
 H325  H    -0.424900      0.047770     -0.477687 
 H326  H    -0.425043      0.160719      0.440485 
 H327  H     0.454735      0.134742      0.455755 
 H328  H    -0.494731      0.224972      0.496159 
 H329  H     0.061099      0.373001      0.177889 
 H330  H     0.158510      0.316303      0.184840 
 H331  H     0.065875      0.262341      0.165610 
 C332  C     0.238200     -0.193688      0.452632 
 C333  C     0.168785     -0.191847     -0.497135 
 C334  C     0.164625     -0.259582     -0.451701 
 C335  C     0.225015     -0.327958     -0.455519 
 C336  C     0.296652     -0.324468      0.499556 
 C337  C     0.307328     -0.253719      0.458092 
 O338  O     0.091370     -0.266058     -0.403769 
 C339  C     0.030875     -0.336226     -0.414072 
 C340  C    -0.067153     -0.308370     -0.402509 
 C341  C    -0.136031     -0.378037     -0.411937 
 C342  C    -0.116282     -0.457346     -0.372407 
 O343  O     0.381661     -0.253336      0.412083 
 C344  C     0.453826     -0.202379      0.436114 
 C345  C    -0.477775     -0.199820      0.375488 
 C346  C    -0.410653     -0.121514      0.379671 
 C347  C    -0.455331     -0.035546      0.369487 
 H348  H     0.227885     -0.382327     -0.417437 
 H349  H     0.251149     -0.145258      0.416975 
 H350  H     0.431825     -0.143804      0.455349 
 H351  H     0.489524     -0.231528      0.484667 
 H352  H     0.043210     -0.365973     -0.464650 
 H353  H     0.046575     -0.384785     -0.375902 
 H354  H    -0.439538     -0.258155      0.372492 
 H355  H     0.492059     -0.199618      0.326058 
 H356  H    -0.080159     -0.275114     -0.351942 
 H357  H    -0.078697     -0.257195     -0.437434 
 H358  H    -0.209721     -0.357974     -0.406285 
 H359  H    -0.129976     -0.401082     -0.466379 
 H360  H    -0.383743     -0.122092      0.433896 
 H361  H    -0.352611     -0.120729      0.342768 
 H362  H     0.481250     -0.028587      0.398612 
 H363  H    -0.408712      0.018054      0.386314 
 H364  H    -0.469545     -0.024501      0.315857 
 H365  H    -0.120337     -0.438662     -0.317324 
 H366  H    -0.169129      0.496978     -0.381892 
 H367  H    -0.049462     -0.489611     -0.388200 
 N368  N    -0.488133      0.493405     -0.184682 
 C369  C    -0.497588      0.404398     -0.215549 
 C370  C     0.432832     -0.454421     -0.213945 
 C371  C    -0.405955     -0.470728     -0.211648 
 C372  C     0.434207     -0.456891     -0.296624 
 H373  H     0.366841     -0.480886     -0.194334 
 H374  H     0.439839     -0.389009     -0.197657 
 C375  C    -0.492766      0.410485     -0.299302 
 H376  H    -0.438500      0.358552     -0.201475 
 H377  H     0.439234      0.372830     -0.200402 
 C378  C    -0.401652     -0.466960     -0.293421 
 H379  H    -0.393953     -0.402579     -0.188114 
 H380  H    -0.350684      0.488692     -0.192016 
 H381  H    -0.425212      0.380132     -0.313324 
 H382  H     0.446630      0.377359     -0.322835 
 H383  H     0.368794     -0.474400     -0.317402 
 H384  H     0.444686     -0.393125     -0.315751 
 H385  H    -0.341535      0.497492     -0.312803 
 N386  N    -0.485629      0.496866     -0.321517 
 H387  H    -0.396731     -0.399633     -0.303156 
 C388  C    -0.269265     -0.300904      0.459516 
 C389  C    -0.337104     -0.295361     -0.489734 
 C390  C    -0.325954     -0.233810     -0.435204 
 C391  C    -0.256564     -0.172919     -0.443445 
 C392  C    -0.194891     -0.178261     -0.498643 
 C393  C    -0.200961     -0.242348      0.452917 
 O394  O    -0.388859     -0.226469     -0.382351 
 C395  C    -0.395842     -0.154181     -0.329950 
 C396  C    -0.478590     -0.161657     -0.281013 
 C397  C     0.429900     -0.164680     -0.323783 
 C398  C     0.339583     -0.186959     -0.291301 
 O399  O    -0.136466     -0.243822      0.405551 
 C400  C    -0.151645     -0.302730      0.346041 
 C401  C    -0.101535     -0.387894      0.354698 
 C402  C    -0.002703     -0.381653      0.332739 
 C403  C     0.047893     -0.319874      0.380041 
 H404  H    -0.245164     -0.128811     -0.399852 
 H405  H    -0.280572     -0.353158      0.421099 
 H406  H    -0.225290     -0.310226      0.331828 
 H407  H    -0.123597     -0.273964      0.299887 
 H408  H    -0.336837     -0.144745     -0.299104 
 H409  H    -0.402001     -0.098706     -0.363271 
 H410  H    -0.105217     -0.406751      0.409562 
 H411  H    -0.130658     -0.437971      0.319419 
 H412  H    -0.465605     -0.219823     -0.253672 
 H413  H    -0.474396     -0.107945     -0.244547 
 H414  H     0.428893     -0.104029     -0.350452 
 H415  H     0.442308     -0.207101     -0.366959 
 H416  H     0.029664     -0.444591      0.330963 
 H417  H    -0.000885     -0.362031      0.279864 
 H418  H     0.016486     -0.256475      0.370046 
 H419  H     0.043481     -0.341596      0.434628 
 H420  H     0.117783     -0.318068      0.360919 
 H421  H     0.319438     -0.141374     -0.251568 
 H422  H     0.285991     -0.188625     -0.326617 
 H423  H     0.349846     -0.246661     -0.264517 
loop_  
_geom_bond_atom_site_label_1  
_geom_bond_atom_site_label_2  
Cu0   Cu1 
Cu0   O4 
Cu0   O7 
Cu0   O10 
Cu0   O13 
Cu0   N82 
Cu1   O2 
Cu1   O5 
Cu1   O8 
Cu1   O11 
Cu1   N276 
O2   C3 
C3   O4 
C3   C32 
O5   C6 
C6   O7 
C6   C85 
O8   C9 
C9   O10 
C9   C177 
O11   C12 
C12   O13 
C12   C121 
Cu14   Cu15 
Cu14   O18 
Cu14   O21 
Cu14   O24 
Cu14   O27 
Cu14   N174 
Cu15   O16 
Cu15   O19 
Cu15   O22 
Cu15   O25 
Cu15   N368 
O16   C17 
C17   O18 
C17   C124 
O19   C20 
C20   O21 
C20   C180 
O22   C23 
C23   O24 
C23   C88 
O25   C26 
C26   O27 
C26   C29 
C28   C29 
C28   C33 
C28   H45 
C29   C30 
C30   C31 
C30   O34 
C31   C32 
C31   H44 
C32   C33 
C33   O39 
O34   C35 
C35   C36 
C35   H48 
C35   H49 
C36   C37 
C36   H52 
C36   H53 
C37   C38 
C37   H54 
C37   H55 
C38   H61 
C38   H62 
C38   H63 
O39   C40 
C40   C41 
C40   H46 
C40   H47 
C41   C42 
C41   H50 
C41   H51 
C42   C43 
C42   H56 
C42   H57 
C43   H58 
C43   H59 
C43   H60 
N64   C65 
N64   C66 
N64   C67 
N64   Cu213 
C65   C71 
C65   H72 
C65   H73 
C66   C68 
C66   H69 
C66   H70 
C67   C74 
C67   H75 
C67   H76 
C68   H79 
C68   H80 
C68   N82 
C71   H77 
C71   H78 
C71   N82 
C74   H81 
C74   N82 
C74   H83 
C84   C85 
C84   C89 
C84   H101 
C85   C86 
C86   C87 
C86   O90 
C87   C88 
C87   H100 
C88   C89 
C89   O95 
O90   C91 
C91   C92 
C91   H104 
C91   H105 
C92   C93 
C92   H108 
C92   H109 
C93   C94 
C93   H110 
C93   H111 
C94   H117 
C94   H118 
C94   H119 
O95   C96 
C96   C97 
C96   H102 
C96   H103 
C97   C98 
C97   H106 
C97   H107 
C98   C99 
C98   H112 
C98   H113 
C99   H114 
C99   H115 
C99   H116 
C120   C121 
C120   C125 
C120   H137 
C121   C122 
C122   C123 
C122   O126 
C123   C124 
C123   H136 
C124   C125 
C125   O131 
O126   C127 
C127   C128 
C127   H140 
C127   H141 
C128   C129 
C128   H144 
C128   H145 
C129   C130 
C129   H146 
C129   H147 
C130   H153 
C130   H154 
C130   H155 
O131   C132 
C132   C133 
C132   H138 
C132   H139 
C133   C134 
C133   H142 
C133   H143 
C134   C135 
C134   H148 
C134   H149 
C135   H150 
C135   H151 
C135   H152 
N156   C157 
N156   C158 
N156   C159 
N156   Cu227 
C157   C163 
C157   H164 
C157   H165 
C158   C160 
C158   H161 
C158   H162 
C159   C166 
C159   H167 
C159   H168 
C160   H171 
C160   H172 
C160   N174 
C163   H169 
C163   H170 
C163   N174 
C166   H173 
C166   N174 
C166   H175 
C176   C177 
C176   C181 
C176   H193 
C177   C178 
C178   C179 
C178   O182 
C179   C180 
C179   H192 
C180   C181 
C181   O187 
O182   C183 
C183   C184 
C183   H196 
C183   H197 
C184   C185 
C184   H200 
C184   H201 
C185   C186 
C185   H202 
C185   H203 
C186   H209 
C186   H210 
C186   H211 
O187   C188 
C188   C189 
C188   H194 
C188   H195 
C189   C190 
C189   H198 
C189   H199 
C190   C191 
C190   H204 
C190   H205 
C191   H206 
C191   H207 
C191   H208 
Cu212   Cu213 
Cu212   O216 
Cu212   O219 
Cu212   O222 
Cu212   O225 
Cu212   N294 
Cu213   O214 
Cu213   O217 
Cu213   O220 
Cu213   O223 
O214   C215 
C215   O216 
C215   C244 
O217   C218 
C218   O219 
C218   C297 
O220   C221 
C221   O222 
C221   C392 
O223   C224 
C224   O225 
C224   C333 
Cu226   Cu227 
Cu226   O230 
Cu226   O233 
Cu226   O236 
Cu226   O239 
Cu226   N386 
Cu227   O228 
Cu227   O231 
Cu227   O234 
Cu227   O237 
O228   C229 
C229   O230 
C229   C336 
O231   C232 
C232   O233 
C232   C389 
O234   C235 
C235   O236 
C235   C300 
O237   C238 
C238   O239 
C238   C241 
C240   C241 
C240   C245 
C240   H257 
C241   C242 
C242   C243 
C242   O246 
C243   C244 
C243   H256 
C244   C245 
C245   O251 
O246   C247 
C247   C248 
C247   H260 
C247   H261 
C248   C249 
C248   H264 
C248   H265 
C249   C250 
C249   H266 
C249   H267 
C250   H273 
C250   H274 
C250   H275 
O251   C252 
C252   C253 
C252   H258 
C252   H259 
C253   C254 
C253   H262 
C253   H263 
C254   C255 
C254   H268 
C254   H269 
C255   H270 
C255   H271 
C255   H272 
N276   C277 
N276   C278 
N276   C279 
C277   C283 
C277   H284 
C277   H285 
C278   C280 
C278   H281 
C278   H282 
C279   C286 
C279   H287 
C279   H288 
C280   H291 
C280   H292 
C280   N294 
C283   H289 
C283   H290 
C283   N294 
C286   H293 
C286   N294 
C286   H295 
C296   C297 
C296   C301 
C296   H313 
C297   C298 
C298   C299 
C298   O302 
C299   C300 
C299   H312 
C300   C301 
C301   O307 
O302   C303 
C303   C304 
C303   H316 
C303   H317 
C304   C305 
C304   H320 
C304   H321 
C305   C306 
C305   H322 
C305   H323 
C306   H329 
C306   H330 
C306   H331 
O307   C308 
C308   C309 
C308   H314 
C308   H315 
C309   C310 
C309   H318 
C309   H319 
C310   C311 
C310   H324 
C310   H325 
C311   H326 
C311   H327 
C311   H328 
C332   C333 
C332   C337 
C332   H349 
C333   C334 
C334   C335 
C334   O338 
C335   C336 
C335   H348 
C336   C337 
C337   O343 
O338   C339 
C339   C340 
C339   H352 
C339   H353 
C340   C341 
C340   H356 
C340   H357 
C341   C342 
C341   H358 
C341   H359 
C342   H365 
C342   H366 
C342   H367 
O343   C344 
C344   C345 
C344   H350 
C344   H351 
C345   C346 
C345   H354 
C345   H355 
C346   C347 
C346   H360 
C346   H361 
C347   H362 
C347   H363 
C347   H364 
N368   C369 
N368   C370 
N368   C371 
C369   C375 
C369   H376 
C369   H377 
C370   C372 
C370   H373 
C370   H374 
C371   C378 
C371   H379 
C371   H380 
C372   H383 
C372   H384 
C372   N386 
C375   H381 
C375   H382 
C375   N386 
C378   H385 
C378   N386 
C378   H387 
C388   C389 
C388   C393 
C388   H405 
C389   C390 
C390   C391 
C390   O394 
C391   C392 
C391   H404 
C392   C393 
C393   O399 
O394   C395 
C395   C396 
C395   H408 
C395   H409 
C396   C397 
C396   H412 
C396   H413 
C397   C398 
C397   H414 
C397   H415 
C398   H421 
C398   H422 
C398   H423 
O399   C400 
C400   C401 
C400   H406 
C400   H407 
C401   C402 
C401   H410 
C401   H411 
C402   C403 
C402   H416 
C402   H417 
C403   H418 
C403   H419 
C403   H420 
  
#END  
