data_
_symmetry_cell_setting           triclinic 
_symmetry_space_group_name_H-M   'P 1' 
_symmetry_Int_Tables_number      1 
loop_ 
_symmetry_equiv_pos_site_id 
_symmetry_equiv_pos_as_xyz 
1 x,y,z 
_cell_length_a             16.289522        
_cell_length_b             14.460291        
_cell_length_c             19.117350        
_cell_angle_alpha          91.844844        
_cell_angle_beta           90.889286        
_cell_angle_gamma          89.381222        
loop_  
_atom_site_label   
_atom_site_type_symbol  
_atom_site_fract_x  
_atom_site_fract_y  
_atom_site_fract_z 
 Cu0  Cu     0.004232      0.000703      0.067125 
 Cu1  Cu    -0.000627     -0.003616     -0.069019 
 O2  O    -0.098352      0.077893     -0.053674 
 C3  C    -0.114460      0.116700      0.005449 
 O4  O    -0.073875      0.105235      0.061971 
 O5  O     0.071555      0.107144     -0.059250 
 C6  C     0.111398      0.124776     -0.002561 
 O7  O     0.098414      0.087212      0.055663 
 O8  O    -0.072927     -0.114304     -0.059092 
 C9  C    -0.107610     -0.128714     -0.001160 
 O10  O    -0.089512     -0.087590      0.056995 
 O11  O     0.098173     -0.084599     -0.061816 
 C12  C     0.115674     -0.122303     -0.004004 
 O13  O     0.080676     -0.104728      0.054023 
 Cu14  Cu    -0.498965     -0.498903      0.072199 
 Cu15  Cu    -0.498471      0.496704     -0.063863 
 O16  O     0.434186     -0.389334     -0.055093 
 C17  C     0.394587     -0.372695      0.000881 
 O18  O     0.409396     -0.409055      0.059711 
 O19  O    -0.397323     -0.426690     -0.049202 
 C20  C    -0.380346     -0.384972      0.008982 
 O21  O    -0.417472     -0.396968      0.066143 
 O22  O     0.399598      0.420678     -0.057202 
 C23  C     0.383510      0.381993     -0.000027 
 O24  O     0.420556      0.398097      0.058255 
 O25  O    -0.430389      0.383579     -0.054325 
 C26  C    -0.393137      0.368659      0.003294 
 O27  O    -0.407866      0.410142      0.061642 
 C28  C    -0.277718      0.291898      0.065413 
 C29  C    -0.324477      0.298736      0.003621 
 C30  C    -0.305179      0.243230     -0.055626 
 C31  C    -0.236404      0.184469     -0.053568 
 C32  C    -0.188374      0.179412      0.007615 
 C33  C    -0.208950      0.233293      0.067415 
 O34  O    -0.349039      0.248524     -0.116920 
 C35  C    -0.387425      0.164714     -0.141968 
 C36  C    -0.385111      0.155600     -0.221717 
 C37  C    -0.299128      0.144688     -0.253558 
 C38  C    -0.247678      0.233000     -0.251407 
 O39  O    -0.165941      0.229720      0.129162 
 C40  C    -0.114001      0.307528      0.144562 
 C41  C    -0.102738      0.321241      0.223466 
 C42  C    -0.182744      0.344475      0.262252 
 C43  C    -0.169372      0.364541      0.340860 
 H44  H    -0.220660      0.144027     -0.100734 
 H45  H    -0.292244      0.333190      0.112444 
 H46  H    -0.054644      0.293362      0.119252 
 H47  H    -0.140361      0.370532      0.121849 
 H48  H    -0.358565      0.103864     -0.118116 
 H49  H    -0.451456      0.168097     -0.124175 
 H50  H    -0.074814      0.258608      0.245314 
 H51  H    -0.058511      0.377313      0.233896 
 H52  H    -0.421393      0.094648     -0.238147 
 H53  H    -0.416625      0.215371     -0.244716 
 H54  H    -0.265173      0.089472     -0.226893 
 H55  H    -0.306120      0.120333     -0.308512 
 H56  H    -0.212821      0.404667      0.238534 
 H57  H    -0.225778      0.286607      0.254786 
 H58  H    -0.128771      0.423947      0.350590 
 H59  H    -0.227846      0.380437      0.366837 
 H60  H    -0.141467      0.304740      0.366644 
 H61  H    -0.279232      0.288902     -0.279076 
 H62  H    -0.234303      0.258280     -0.197717 
 H63  H    -0.188463      0.220313     -0.276877 
 N64  N    -0.000332      0.005090      0.317033 
 C65  C     0.042311      0.086887      0.291336 
 C66  C     0.041963     -0.078768      0.288737 
 C67  C    -0.085460      0.006127      0.288860 
 C68  C     0.039898     -0.081290      0.207056 
 H69  H     0.106034     -0.078510      0.307994 
 H70  H     0.013140     -0.140805      0.309187 
 C71  C     0.043813      0.084426      0.209594 
 H72  H     0.010945      0.149963      0.311613 
 H73  H     0.105413      0.088228      0.313002 
 C74  C    -0.085670      0.006363      0.207180 
 H75  H    -0.117956     -0.054833      0.307227 
 H76  H    -0.118198      0.067655      0.310245 
 H77  H     0.015996      0.147806      0.188601 
 H78  H     0.107700      0.081218      0.191299 
 H79  H     0.102790     -0.086593      0.186628 
 H80  H     0.006458     -0.142450      0.186431 
 H81  H    -0.116854      0.068985      0.188243 
 N82  N    -0.000730      0.002853      0.180607 
 H83  H    -0.120036     -0.053305      0.185130 
 C84  C     0.245928      0.180786      0.044308 
 C85  C     0.181207      0.192369     -0.003908 
 C86  C     0.182830      0.264237     -0.051851 
 C87  C     0.249731      0.325220     -0.050163 
 C88  C     0.314391      0.313363     -0.001926 
 C89  C     0.314414      0.238807      0.043372 
 O90  O     0.119257      0.269322     -0.099622 
 C91  C     0.097160      0.354685     -0.131791 
 C92  C     0.039498      0.410740     -0.084459 
 C93  C    -0.042936      0.363355     -0.072358 
 C94  C    -0.102307      0.423309     -0.028466 
 O95  O     0.382143      0.225143      0.085253 
 C96  C     0.403683      0.132250      0.103236 
 C97  C     0.497035      0.122369      0.105465 
 C98  C    -0.457698      0.191339      0.154883 
 C99  C    -0.479837      0.184888      0.232273 
 H100  H     0.252073      0.382097     -0.086250 
 H101  H     0.244399      0.125354      0.081724 
 H102  H     0.376680      0.118052      0.154153 
 H103  H     0.378060      0.082222      0.064249 
 H104  H     0.151448      0.394801     -0.144894 
 H105  H     0.066147      0.336264     -0.181773 
 H106  H    -0.486246      0.051521      0.119984 
 H107  H    -0.479847      0.130168      0.052108 
 H108  H     0.070368      0.425076     -0.033680 
 H109  H     0.027390      0.478527     -0.107347 
 H110  H    -0.072245      0.345313     -0.123201 
 H111  H    -0.031713      0.297284     -0.046464 
 H112  H    -0.391125      0.179883      0.149343 
 H113  H    -0.469698      0.261973      0.137186 
 H114  H     0.455185      0.201996      0.241065 
 H115  H    -0.468036      0.114960      0.251189 
 H116  H    -0.443071      0.233128      0.265081 
 H117  H    -0.115503      0.489689     -0.052854 
 H118  H    -0.161158      0.388273     -0.022388 
 H119  H    -0.076869      0.438462      0.024129 
 C120  C     0.265627     -0.310331      0.051802 
 C121  C     0.322473     -0.307639     -0.002292 
 C122  C     0.310428     -0.247059     -0.057653 
 C123  C     0.240587     -0.189851     -0.058901 
 C124  C     0.184199     -0.192181     -0.004484 
 C125  C     0.194681     -0.255307      0.049448 
 O126  O     0.363112     -0.245726     -0.112492 
 C127  C     0.405040     -0.160439     -0.122250 
 C128  C     0.413586     -0.145751     -0.200365 
 C129  C     0.331518     -0.132097     -0.239769 
 C130  C     0.341743     -0.119482     -0.318512 
 O131  O     0.139892     -0.264695      0.102159 
 C132  C     0.062608     -0.305797      0.081985 
 C133  C     0.073097     -0.410016      0.069920 
 C134  C     0.100308     -0.461867      0.135493 
 C135  C     0.116185      0.434498      0.121213 
 H136  H     0.231922     -0.142954     -0.102064 
 H137  H     0.273505     -0.357389      0.094946 
 H138  H     0.018782     -0.290243      0.124122 
 H139  H     0.037621     -0.273933      0.034471 
 H140  H     0.372735     -0.101542     -0.096560 
 H141  H     0.465860     -0.166423     -0.096613 
 H142  H     0.014370     -0.438358      0.050264 
 H143  H     0.117645     -0.423679      0.027941 
 H144  H     0.452159     -0.084791     -0.207450 
 H145  H     0.446804     -0.205169     -0.224322 
 H146  H     0.291832     -0.191939     -0.231918 
 H147  H     0.298969     -0.071543     -0.216828 
 H148  H     0.156432     -0.430256      0.157896 
 H149  H     0.052942     -0.452639      0.175638 
 H150  H     0.134792      0.399741      0.169308 
 H151  H     0.061098      0.399767      0.099996 
 H152  H     0.165552      0.423042      0.083205 
 H153  H     0.282012     -0.108934     -0.344794 
 H154  H     0.379905     -0.059377     -0.328767 
 H155  H     0.370885     -0.180688     -0.343620 
 N156  N    -0.494079     -0.496350      0.322996 
 C157  C    -0.415256      0.467363      0.295381 
 C158  C     0.438917      0.444838      0.294141 
 C159  C     0.493129     -0.401690      0.297229 
 C160  C     0.436911      0.445846      0.212385 
 H161  H     0.448260      0.373704      0.312137 
 H162  H     0.379874      0.469802      0.315511 
 C163  C    -0.416757      0.464866      0.213593 
 H164  H    -0.364947     -0.488730      0.316119 
 H165  H    -0.403816      0.397433      0.314982 
 C166  C     0.494424     -0.402212      0.215445 
 H167  H     0.433791     -0.374496      0.316318 
 H168  H    -0.459009     -0.355856      0.319868 
 H169  H    -0.365655     -0.494896      0.193285 
 H170  H    -0.408645      0.393251      0.193251 
 H171  H     0.442237      0.374871      0.190044 
 H172  H     0.377929      0.474243      0.193125 
 H173  H    -0.454601     -0.359973      0.197396 
 N174  N    -0.495475     -0.497609      0.186324 
 H175  H     0.437319     -0.371586      0.194275 
 C176  C    -0.231762     -0.188117      0.056022 
 C177  C    -0.176839     -0.197182      0.000348 
 C178  C    -0.188200     -0.267081     -0.051720 
 C179  C    -0.254728     -0.327612     -0.046815 
 C180  C    -0.310010     -0.317925      0.008377 
 C181  C    -0.299672     -0.246849      0.059530 
 O182  O    -0.133479     -0.275336     -0.105480 
 C183  C    -0.151196     -0.339379     -0.162515 
 C184  C    -0.085292     -0.332143     -0.217453 
 C185  C    -0.096127     -0.400741     -0.279885 
 C186  C    -0.171876     -0.381411     -0.326011 
 O187  O    -0.356572     -0.236991      0.111353 
 C188  C    -0.365096     -0.148870      0.147399 
 C189  C    -0.449455     -0.143303      0.180720 
 C190  C     0.479127     -0.156375      0.127716 
 C191  C     0.394210     -0.143013      0.160208 
 H192  H    -0.263644     -0.383275     -0.086097 
 H193  H    -0.222695     -0.134208      0.096602 
 H194  H    -0.316084     -0.142170      0.187587 
 H195  H    -0.358403     -0.092618      0.110375 
 H196  H    -0.152223     -0.410187     -0.142994 
 H197  H    -0.212234     -0.322856     -0.184709 
 H198  H    -0.453363     -0.195597      0.221129 
 H199  H    -0.456209     -0.075676      0.208350 
 H200  H    -0.084986     -0.261390     -0.236887 
 H201  H    -0.024623     -0.343461     -0.192730 
 H202  H    -0.040892     -0.399371     -0.312314 
 H203  H    -0.099592     -0.471178     -0.260121 
 H204  H     0.485748     -0.107914      0.084966 
 H205  H     0.483191     -0.226188      0.103017 
 H206  H     0.387077     -0.073543      0.184509 
 H207  H     0.345283     -0.151619      0.120345 
 H208  H     0.383968     -0.193974      0.200470 
 H209  H    -0.229267     -0.386033     -0.296948 
 H210  H    -0.169285     -0.311868     -0.347313 
 H211  H    -0.175999     -0.430897     -0.370753 
 Cu212  Cu     0.007248      0.003388     -0.433786 
 Cu213  Cu     0.002518      0.002953      0.430147 
 O214  O    -0.090383      0.090396      0.441559 
 C215  C    -0.105276      0.128080     -0.498798 
 O216  O    -0.066377      0.112242     -0.442047 
 O217  O     0.081589      0.107335      0.442690 
 C218  C     0.120548      0.122928     -0.499938 
 O219  O     0.105198      0.084877     -0.442316 
 O220  O    -0.076598     -0.100896      0.436469 
 C221  C    -0.112082     -0.114699      0.494061 
 O222  O    -0.091388     -0.077729     -0.446829 
 O223  O     0.095222     -0.085485      0.438837 
 C224  C     0.114736     -0.122690      0.496242 
 O225  O     0.079995     -0.106258     -0.445275 
 Cu226  Cu    -0.492277     -0.494475     -0.426720 
 Cu227  Cu    -0.496371     -0.499853      0.437085 
 O228  O     0.424780     -0.395542      0.449012 
 C229  C     0.388959     -0.379678     -0.492932 
 O230  O     0.408840     -0.415305     -0.434995 
 O231  O    -0.404045     -0.411120      0.445346 
 C232  C    -0.386027     -0.369649     -0.496635 
 O233  O    -0.420359     -0.383982     -0.438534 
 O234  O     0.411335      0.412488      0.448626 
 C235  C     0.396861      0.375746     -0.493153 
 O236  O     0.435909      0.393411     -0.436067 
 O237  O    -0.417497      0.396115      0.446792 
 C238  C    -0.379692      0.383169     -0.495479 
 O239  O    -0.393965      0.425732     -0.437555 
 C240  C    -0.249127      0.325495     -0.444486 
 C241  C    -0.312173      0.312342     -0.494377 
 C242  C    -0.309823      0.237522      0.456921 
 C243  C    -0.240379      0.180075      0.454773 
 C244  C    -0.176962      0.193608     -0.495777 
 C245  C    -0.180668      0.265947     -0.445160 
 O246  O    -0.371254      0.218519      0.409176 
 C247  C    -0.448107      0.189469      0.437103 
 C248  C    -0.441767      0.089543      0.460302 
 C249  C    -0.422041      0.018712      0.400998 
 C250  C    -0.413048     -0.080676      0.426045 
 O251  O    -0.116638      0.274808     -0.398293 
 C252  C    -0.103069      0.361634     -0.362126 
 C253  C    -0.021971      0.354621     -0.321670 
 C254  C     0.052325      0.326257     -0.366504 
 C255  C     0.065239      0.388077     -0.428974 
 H256  H    -0.238098      0.123735      0.415448 
 H257  H    -0.252215      0.383211     -0.406359 
 H258  H    -0.101701      0.417170     -0.400225 
 H259  H    -0.153819      0.376699     -0.325972 
 H260  H    -0.466359      0.235488      0.481317 
 H261  H    -0.495504      0.196917      0.395905 
 H262  H    -0.008895      0.421338     -0.294757 
 H263  H    -0.028575      0.304374     -0.280090 
 H264  H    -0.394584      0.084541     -0.498013 
 H265  H     0.499889      0.070847      0.484280 
 H266  H    -0.470625      0.021566      0.360449 
 H267  H    -0.364924      0.038338      0.375497 
 H268  H     0.107907      0.327223     -0.333022 
 H269  H     0.045569      0.253993     -0.385615 
 H270  H     0.122983      0.370164     -0.455313 
 H271  H     0.015465      0.379911     -0.468098 
 H272  H     0.067656      0.461450     -0.412625 
 H273  H    -0.469447     -0.104061      0.450550 
 H274  H    -0.399278     -0.129304      0.382308 
 H275  H    -0.362747     -0.086352      0.464717 
 N276  N     0.006756      0.002315     -0.182820 
 C277  C    -0.014466     -0.089916     -0.213016 
 C278  C    -0.053943      0.070081     -0.209260 
 C279  C     0.088764      0.026991     -0.208500 
 C280  C    -0.054242      0.069791     -0.291067 
 H281  H    -0.115295      0.052864     -0.190182 
 H282  H    -0.039044      0.139355     -0.187022 
 C283  C    -0.013123     -0.089984     -0.294787 
 H284  H     0.028980     -0.141943     -0.192639 
 H285  H    -0.075956     -0.108425     -0.195027 
 C286  C     0.088629      0.028649     -0.290241 
 H287  H     0.106223      0.095142     -0.185805 
 H288  H     0.134516     -0.023332     -0.189326 
 H289  H     0.032455     -0.140547     -0.315170 
 H290  H    -0.073253     -0.111012     -0.316898 
 H291  H    -0.115431      0.051613     -0.312564 
 H292  H    -0.040252      0.139240     -0.309461 
 H293  H     0.135507     -0.019348     -0.311966 
 N294  N     0.007084      0.002951     -0.319507 
 H295  H     0.104066      0.098293     -0.307568 
 C296  C     0.273647      0.307102      0.448322 
 C297  C     0.327050      0.308055     -0.493530 
 C298  C     0.313720      0.248252     -0.438432 
 C299  C     0.245595      0.189453     -0.441562 
 C300  C     0.191512      0.189358     -0.499359 
 C301  C     0.204249      0.250097      0.445832 
 O302  O     0.364154      0.250702     -0.380484 
 C303  C     0.397100      0.164375     -0.357020 
 C304  C     0.395277      0.161049     -0.277288 
 C305  C     0.309342      0.156796     -0.245111 
 C306  C     0.259638      0.247454     -0.246718 
 O307  O     0.147718      0.252438      0.391856 
 C308  C     0.146645      0.327498      0.344277 
 C309  C     0.120715      0.417729      0.381858 
 C310  C     0.120997     -0.497941      0.335034 
 C311  C     0.104567     -0.406489      0.375539 
 H312  H     0.234796      0.144544     -0.397891 
 H313  H     0.284832      0.353165      0.405429 
 H314  H     0.206766      0.332764      0.319213 
 H315  H     0.101966      0.309421      0.302348 
 H316  H     0.364582      0.104898     -0.381368 
 H317  H     0.460939      0.160015     -0.375186 
 H318  H     0.058681      0.409546      0.402864 
 H319  H     0.161027      0.432192      0.427567 
 H320  H     0.430346      0.099441     -0.261456 
 H321  H     0.428216      0.220953     -0.254054 
 H322  H     0.274237      0.101017     -0.271799 
 H323  H     0.316210      0.136465     -0.190258 
 H324  H     0.180685     -0.494197      0.309031 
 H325  H     0.074476      0.492593      0.293109 
 H326  H     0.104408     -0.347473      0.340681 
 H327  H     0.044962     -0.407127      0.401638 
 H328  H     0.151955     -0.393452      0.416149 
 H329  H     0.199695      0.239175     -0.222322 
 H330  H     0.291673      0.303648     -0.217890 
 H331  H     0.247857      0.269955     -0.300255 
 C332  C     0.305908     -0.262266      0.445465 
 C333  C     0.317073     -0.314170     -0.494539 
 C334  C     0.261362     -0.306068     -0.439368 
 C335  C     0.195951     -0.243071     -0.443625 
 C336  C     0.184934     -0.190725      0.496503 
 C337  C     0.239354     -0.200419      0.440241 
 O338  O     0.270394     -0.356853     -0.380685 
 C339  C     0.207408     -0.423491     -0.370239 
 C340  C     0.160569     -0.399694     -0.303433 
 C341  C     0.213051     -0.404377     -0.236149 
 C342  C     0.165480     -0.378049     -0.169754 
 O343  O     0.225163     -0.149413      0.381884 
 C344  C     0.288108     -0.138509      0.331104 
 C345  C     0.353228     -0.071666      0.359915 
 C346  C     0.321427      0.027626      0.374543 
 C347  C     0.298474      0.079886      0.308338 
 H348  H     0.154551     -0.235531     -0.399475 
 H349  H     0.349325     -0.270209      0.402759 
 H350  H     0.314612     -0.206108      0.315153 
 H351  H     0.258182     -0.111229      0.283943 
 H352  H     0.165395     -0.426211     -0.415998 
 H353  H     0.237374     -0.492004     -0.367468 
 H354  H     0.379891     -0.098289      0.408690 
 H355  H     0.404283     -0.069883      0.322911 
 H356  H     0.132904     -0.330111     -0.306735 
 H357  H     0.108958     -0.447774     -0.299809 
 H358  H     0.238341     -0.474903     -0.231734 
 H359  H     0.266052     -0.358280     -0.239881 
 H360  H     0.267893      0.025853      0.409024 
 H361  H     0.368696      0.066734      0.404336 
 H362  H     0.351334      0.084563      0.273722 
 H363  H     0.248518      0.045886      0.278475 
 H364  H     0.277893      0.150800      0.321689 
 H365  H     0.143109     -0.306073     -0.170478 
 H366  H     0.112130     -0.422726     -0.163990 
 H367  H     0.204550     -0.384861     -0.122748 
 N368  N    -0.495936     -0.498370     -0.176983 
 C369  C    -0.454464     -0.414682     -0.200969 
 C370  C    -0.452341      0.419419     -0.206409 
 C371  C     0.419196     -0.498694     -0.205551 
 C372  C    -0.451399      0.421253     -0.288034 
 H373  H    -0.389142      0.417806     -0.184854 
 H374  H    -0.482934      0.356639     -0.189067 
 C375  C    -0.455020     -0.412847     -0.282684 
 H376  H    -0.485338     -0.352672     -0.178337 
 H377  H    -0.390811     -0.414131     -0.180486 
 C378  C     0.419407     -0.497408     -0.287169 
 H379  H     0.387438      0.439389     -0.188081 
 H380  H     0.385621     -0.438112     -0.183607 
 H381  H    -0.487585     -0.350733     -0.301161 
 H382  H    -0.391801     -0.409938     -0.302289 
 H383  H    -0.387608      0.422110     -0.306460 
 H384  H    -0.479983      0.358562     -0.311534 
 H385  H     0.386133     -0.435853     -0.305511 
 N386  N    -0.495628     -0.496009     -0.313305 
 H387  H     0.387532      0.441657     -0.310105 
 C388  C    -0.274804     -0.293443      0.438867 
 C389  C    -0.317921     -0.300023     -0.498565 
 C390  C    -0.296109     -0.243031     -0.440445 
 C391  C    -0.229003     -0.183578     -0.444256 
 C392  C    -0.184644     -0.178581      0.493746 
 C393  C    -0.208045     -0.233624      0.434900 
 O394  O    -0.336082     -0.246622     -0.378384 
 C395  C    -0.382475     -0.165285     -0.358564 
 C396  C    -0.376802     -0.149628     -0.279453 
 C397  C    -0.289373     -0.131633     -0.251085 
 C398  C    -0.285973     -0.113448     -0.171605 
 O399  O    -0.170177     -0.230113      0.371848 
 C400  C    -0.107005     -0.298531      0.360243 
 C401  C    -0.099192     -0.319613      0.281946 
 C402  C    -0.176929     -0.360921      0.247147 
 C403  C    -0.165652     -0.389051      0.169789 
 H404  H    -0.212067     -0.142059     -0.397698 
 H405  H    -0.290899     -0.335444      0.392348 
 H406  H    -0.049174     -0.270755      0.382527 
 H407  H    -0.120960     -0.361885      0.388177 
 H408  H    -0.360629     -0.104300     -0.385706 
 H409  H    -0.446568     -0.176947     -0.375684 
 H410  H    -0.083151     -0.255958      0.255390 
 H411  H    -0.047377     -0.368098      0.273663 
 H412  H    -0.416423     -0.090279     -0.264567 
 H413  H    -0.401977     -0.209925     -0.253676 
 H414  H    -0.249623     -0.191373     -0.264711 
 H415  H    -0.263479     -0.072259     -0.277491 
 H416  H    -0.195827     -0.421635      0.276028 
 H417  H    -0.227801     -0.310372      0.251668 
 H418  H    -0.148338     -0.329562      0.139031 
 H419  H    -0.117531     -0.442358      0.163288 
 H420  H    -0.222711     -0.417120      0.146554 
 H421  H    -0.323193     -0.052663     -0.156038 
 H422  H    -0.309148     -0.172746     -0.143545 
 H423  H    -0.222776     -0.100868     -0.152894 
loop_  
_geom_bond_atom_site_label_1  
_geom_bond_atom_site_label_2  
Cu0   Cu1 
Cu0   O4 
Cu0   O7 
Cu0   O10 
Cu0   O13 
Cu0   N82 
Cu1   O2 
Cu1   O5 
Cu1   O8 
Cu1   O11 
Cu1   N276 
O2   C3 
C3   O4 
C3   C32 
O5   C6 
C6   O7 
C6   C85 
O8   C9 
C9   O10 
C9   C177 
O11   C12 
C12   O13 
C12   C124 
Cu14   Cu15 
Cu14   O18 
Cu14   O21 
Cu14   O24 
Cu14   O27 
Cu14   N174 
Cu15   O16 
Cu15   O19 
Cu15   O22 
Cu15   O25 
Cu15   N368 
O16   C17 
C17   O18 
C17   C121 
O19   C20 
C20   O21 
C20   C180 
O22   C23 
C23   O24 
C23   C88 
O25   C26 
C26   O27 
C26   C29 
C28   C29 
C28   C33 
C28   H45 
C29   C30 
C30   C31 
C30   O34 
C31   C32 
C31   H44 
C32   C33 
C33   O39 
O34   C35 
C35   C36 
C35   H48 
C35   H49 
C36   C37 
C36   H52 
C36   H53 
C37   C38 
C37   H54 
C37   H55 
C38   H61 
C38   H62 
C38   H63 
O39   C40 
C40   C41 
C40   H46 
C40   H47 
C41   C42 
C41   H50 
C41   H51 
C42   C43 
C42   H56 
C42   H57 
C43   H58 
C43   H59 
C43   H60 
N64   C65 
N64   C66 
N64   C67 
N64   Cu213 
C65   C71 
C65   H72 
C65   H73 
C66   C68 
C66   H69 
C66   H70 
C67   C74 
C67   H75 
C67   H76 
C68   H79 
C68   H80 
C68   N82 
C71   H77 
C71   H78 
C71   N82 
C74   H81 
C74   N82 
C74   H83 
C84   C85 
C84   C89 
C84   H101 
C85   C86 
C86   C87 
C86   O90 
C87   C88 
C87   H100 
C88   C89 
C89   O95 
O90   C91 
C91   C92 
C91   H104 
C91   H105 
C92   C93 
C92   H108 
C92   H109 
C93   C94 
C93   H110 
C93   H111 
C94   H117 
C94   H118 
C94   H119 
O95   C96 
C96   C97 
C96   H102 
C96   H103 
C97   C98 
C97   H106 
C97   H107 
C98   C99 
C98   H112 
C98   H113 
C99   H114 
C99   H115 
C99   H116 
C120   C121 
C120   C125 
C120   H137 
C121   C122 
C122   C123 
C122   O126 
C123   C124 
C123   H136 
C124   C125 
C125   O131 
O126   C127 
C127   C128 
C127   H140 
C127   H141 
C128   C129 
C128   H144 
C128   H145 
C129   C130 
C129   H146 
C129   H147 
C130   H153 
C130   H154 
C130   H155 
O131   C132 
C132   C133 
C132   H138 
C132   H139 
C133   C134 
C133   H142 
C133   H143 
C134   C135 
C134   H148 
C134   H149 
C135   H150 
C135   H151 
C135   H152 
N156   C157 
N156   C158 
N156   C159 
N156   Cu227 
C157   C163 
C157   H164 
C157   H165 
C158   C160 
C158   H161 
C158   H162 
C159   C166 
C159   H167 
C159   H168 
C160   H171 
C160   H172 
C160   N174 
C163   H169 
C163   H170 
C163   N174 
C166   H173 
C166   N174 
C166   H175 
C176   C177 
C176   C181 
C176   H193 
C177   C178 
C178   C179 
C178   O182 
C179   C180 
C179   H192 
C180   C181 
C181   O187 
O182   C183 
C183   C184 
C183   H196 
C183   H197 
C184   C185 
C184   H200 
C184   H201 
C185   C186 
C185   H202 
C185   H203 
C186   H209 
C186   H210 
C186   H211 
O187   C188 
C188   C189 
C188   H194 
C188   H195 
C189   C190 
C189   H198 
C189   H199 
C190   C191 
C190   H204 
C190   H205 
C191   H206 
C191   H207 
C191   H208 
Cu212   Cu213 
Cu212   O216 
Cu212   O219 
Cu212   O222 
Cu212   O225 
Cu212   N294 
Cu213   O214 
Cu213   O217 
Cu213   O220 
Cu213   O223 
O214   C215 
C215   O216 
C215   C244 
O217   C218 
C218   O219 
C218   C300 
O220   C221 
C221   O222 
C221   C392 
O223   C224 
C224   O225 
C224   C336 
Cu226   Cu227 
Cu226   O230 
Cu226   O233 
Cu226   O236 
Cu226   O239 
Cu226   N386 
Cu227   O228 
Cu227   O231 
Cu227   O234 
Cu227   O237 
O228   C229 
C229   O230 
C229   C333 
O231   C232 
C232   O233 
C232   C389 
O234   C235 
C235   O236 
C235   C297 
O237   C238 
C238   O239 
C238   C241 
C240   C241 
C240   C245 
C240   H257 
C241   C242 
C242   C243 
C242   O246 
C243   C244 
C243   H256 
C244   C245 
C245   O251 
O246   C247 
C247   C248 
C247   H260 
C247   H261 
C248   C249 
C248   H264 
C248   H265 
C249   C250 
C249   H266 
C249   H267 
C250   H273 
C250   H274 
C250   H275 
O251   C252 
C252   C253 
C252   H258 
C252   H259 
C253   C254 
C253   H262 
C253   H263 
C254   C255 
C254   H268 
C254   H269 
C255   H270 
C255   H271 
C255   H272 
N276   C277 
N276   C278 
N276   C279 
C277   C283 
C277   H284 
C277   H285 
C278   C280 
C278   H281 
C278   H282 
C279   C286 
C279   H287 
C279   H288 
C280   H291 
C280   H292 
C280   N294 
C283   H289 
C283   H290 
C283   N294 
C286   H293 
C286   N294 
C286   H295 
C296   C297 
C296   C301 
C296   H313 
C297   C298 
C298   C299 
C298   O302 
C299   C300 
C299   H312 
C300   C301 
C301   O307 
O302   C303 
C303   C304 
C303   H316 
C303   H317 
C304   C305 
C304   H320 
C304   H321 
C305   C306 
C305   H322 
C305   H323 
C306   H329 
C306   H330 
C306   H331 
O307   C308 
C308   C309 
C308   H314 
C308   H315 
C309   C310 
C309   H318 
C309   H319 
C310   C311 
C310   H324 
C310   H325 
C311   H326 
C311   H327 
C311   H328 
C332   C333 
C332   C337 
C332   H349 
C333   C334 
C334   C335 
C334   O338 
C335   C336 
C335   H348 
C336   C337 
C337   O343 
O338   C339 
C339   C340 
C339   H352 
C339   H353 
C340   C341 
C340   H356 
C340   H357 
C341   C342 
C341   H358 
C341   H359 
C342   H365 
C342   H366 
C342   H367 
O343   C344 
C344   C345 
C344   H350 
C344   H351 
C345   C346 
C345   H354 
C345   H355 
C346   C347 
C346   H360 
C346   H361 
C347   H362 
C347   H363 
C347   H364 
N368   C369 
N368   C370 
N368   C371 
C369   C375 
C369   H376 
C369   H377 
C370   C372 
C370   H373 
C370   H374 
C371   C378 
C371   H379 
C371   H380 
C372   H383 
C372   H384 
C372   N386 
C375   H381 
C375   H382 
C375   N386 
C378   H385 
C378   N386 
C378   H387 
C388   C389 
C388   C393 
C388   H405 
C389   C390 
C390   C391 
C390   O394 
C391   C392 
C391   H404 
C392   C393 
C393   O399 
O394   C395 
C395   C396 
C395   H408 
C395   H409 
C396   C397 
C396   H412 
C396   H413 
C397   C398 
C397   H414 
C397   H415 
C398   H421 
C398   H422 
C398   H423 
O399   C400 
C400   C401 
C400   H406 
C400   H407 
C401   C402 
C401   H410 
C401   H411 
C402   C403 
C402   H416 
C402   H417 
C403   H418 
C403   H419 
C403   H420 
  
#END  
