data_
_symmetry_cell_setting           triclinic 
_symmetry_space_group_name_H-M   'P 1' 
_symmetry_Int_Tables_number      1 
loop_ 
_symmetry_equiv_pos_site_id 
_symmetry_equiv_pos_as_xyz 
1 x,y,z 
_cell_length_a             25.851656        
_cell_length_b             25.851657        
_cell_length_c             25.851657        
_cell_angle_alpha          90.000000        
_cell_angle_beta           90.000000        
_cell_angle_gamma          90.000000        
loop_  
_atom_site_label   
_atom_site_type_symbol  
_atom_site_fract_x  
_atom_site_fract_y  
_atom_site_fract_z 
 Zn0  Zn    -0.034343     -0.040923     -0.011097 
 Zn1  Zn    -0.031413      0.046772      0.074401 
 Zn2  Zn     0.054241     -0.041948      0.072163 
 Zn3  Zn     0.053162      0.044655     -0.014542 
 H4  H    -0.193936      0.003328      0.118797 
 H5  H     0.213824      0.018823     -0.051709 
 H6  H     0.095087     -0.199419      0.023676 
 H7  H    -0.067724      0.207163      0.032176 
 H8  H     0.019673      0.087213     -0.172269 
 H9  H     0.031114     -0.078056      0.232062 
 H10  H    -0.124262      0.044598     -0.125852 
 H11  H     0.148993     -0.047481      0.195045 
 H12  H    -0.153682     -0.159387      0.085440 
 H13  H     0.177591      0.136743     -0.020254 
 H14  H     0.026433     -0.152246     -0.103657 
 H15  H    -0.032046      0.163877      0.165139 
 H16  H    -0.136789     -0.019475     -0.144181 
 H17  H     0.163489      0.016961      0.211086 
 H18  H    -0.173657     -0.150793      0.020984 
 H19  H     0.194961      0.153714      0.043228 
 H20  H    -0.035503     -0.173231     -0.121845 
 H21  H     0.030259      0.183776      0.183467 
 H22  H    -0.220794      0.054971     -0.103549 
 H23  H     0.238906     -0.061386      0.162289 
 H24  H    -0.125477     -0.251418      0.062793 
 H25  H     0.146968      0.226726     -0.037836 
 H26  H     0.044764     -0.124674     -0.195338 
 H27  H    -0.050478      0.134319      0.255921 
 H28  H    -0.228692     -0.012079     -0.118310 
 H29  H     0.256481      0.002452      0.182281 
 H30  H    -0.138731     -0.236472     -0.003554 
 H31  H     0.168457      0.246682      0.024804 
 H32  H    -0.017362     -0.147892     -0.214446 
 H33  H     0.011633      0.157035      0.276008 
 C34  C    -0.185717      0.003538      0.035234 
 C35  C     0.206781      0.007951      0.030960 
 C36  C     0.011575     -0.194857      0.025974 
 C37  C     0.015456      0.199190      0.028716 
 C38  C     0.000665      0.005591     -0.165680 
 C39  C     0.020632      0.004778      0.226310 
 C40  C    -0.213832      0.003205      0.081520 
 C41  C     0.234337      0.011218     -0.015530 
 C42  C     0.058789     -0.220982      0.021936 
 C43  C    -0.030883      0.227129      0.027120 
 C44  C     0.011218      0.051259     -0.192848 
 C45  C     0.022761     -0.042275      0.253011 
 C46  C    -0.211078      0.003729     -0.012845 
 C47  C     0.232775     -0.001929      0.077631 
 C48  C    -0.035323     -0.222066      0.023733 
 C49  C     0.062758      0.224430      0.020034 
 C50  C    -0.008429     -0.040792     -0.192421 
 C51  C     0.010204      0.050901      0.252942 
 C52  C    -0.128079      0.000953      0.037490 
 C53  C     0.149098      0.004244      0.027879 
 C54  C     0.012214     -0.137116      0.026898 
 C55  C     0.012660      0.141322      0.029748 
 C56  C     0.002600      0.006429     -0.107944 
 C57  C     0.017561      0.002897      0.168513 
 C58  C    -0.154303      0.019391     -0.142508 
 C59  C     0.180371     -0.022130      0.208894 
 C60  C    -0.168497     -0.180217      0.051435 
 C61  C     0.192639      0.168846      0.003435 
 C62  C     0.004551     -0.169365     -0.135976 
 C63  C    -0.009784      0.180173      0.197665 
 C64  C    -0.200663      0.017504     -0.105916 
 C65  C     0.224150     -0.022038      0.169260 
 C66  C    -0.128497     -0.219858      0.034273 
 C67  C     0.154224      0.213605      0.002048 
 C68  C     0.005077     -0.132247     -0.181801 
 C69  C    -0.010731      0.142271      0.242900 
 H70  H    -0.166198      0.037466     -0.198015 
 H71  H     0.196633     -0.039068      0.263629 
 H72  H    -0.221017     -0.204237      0.065266 
 H73  H     0.247481      0.182996     -0.014867 
 H74  H     0.025958     -0.223623     -0.147814 
 H75  H    -0.030435      0.234490      0.210310 
 O76  O     0.010502      0.002432      0.030431 
 O77  O    -0.180334      0.004527     -0.056008 
 O78  O     0.203503     -0.002202      0.121840 
 O79  O    -0.079808     -0.193905      0.029686 
 O80  O     0.106742      0.195142      0.023707 
 O81  O    -0.017728     -0.084756     -0.164553 
 O82  O     0.011989      0.095395      0.224310 
 O83  O    -0.105300      0.027854      0.071768 
 O84  O     0.047220     -0.115435      0.053719 
 O85  O     0.031159      0.040459     -0.087018 
 O86  O    -0.106317     -0.028667      0.005101 
 O87  O    -0.021620     -0.114076     -0.000058 
 O88  O    -0.024690     -0.026564     -0.084108 
 O89  O     0.126480     -0.023574      0.061416 
 O90  O     0.046444      0.117151      0.003654 
 O91  O    -0.009222      0.037411      0.145992 
 O92  O     0.127144      0.028167     -0.009048 
 O93  O    -0.023778      0.120653      0.055600 
 O94  O     0.041200     -0.034079      0.146381 
 Zn95  Zn    -0.446588      0.041392      0.079589 
 Zn96  Zn    -0.445335     -0.043090     -0.008720 
 Zn97  Zn     0.466944      0.042562     -0.006985 
 Zn98  Zn     0.467457     -0.045368      0.078111 
 H99  H     0.306904     -0.017785      0.113474 
 H100  H    -0.285328      0.001811     -0.051817 
 H101  H    -0.412158     -0.201797     -0.009388 
 H102  H     0.428076      0.203703      0.031385 
 H103  H     0.494820      0.081598     -0.167136 
 H104  H     0.488363     -0.083139      0.237839 
 H105  H     0.372711      0.047322     -0.133091 
 H106  H    -0.357511     -0.044479      0.188832 
 H107  H     0.371379     -0.132619      0.086021 
 H108  H    -0.328725      0.129555     -0.011551 
 H109  H    -0.432495     -0.162936     -0.106157 
 H110  H     0.476623      0.152180      0.166704 
 H111  H     0.354765     -0.015934     -0.150391 
 H112  H    -0.347125      0.020413      0.205529 
 H113  H     0.381561     -0.144044      0.019887 
 H114  H    -0.308959      0.142906      0.051999 
 H115  H    -0.495843     -0.183617     -0.119436 
 H116  H    -0.460328      0.172696      0.180943 
 H117  H     0.283364      0.064715     -0.099256 
 H118  H    -0.262800     -0.054708      0.167244 
 H119  H     0.364549     -0.231717      0.099181 
 H120  H    -0.354522      0.223485     -0.023096 
 H121  H    -0.423113     -0.129127     -0.196477 
 H122  H     0.461048      0.131491      0.260592 
 H123  H     0.263294      0.001922     -0.120164 
 H124  H    -0.251583      0.010582      0.187100 
 H125  H     0.383450     -0.238173      0.033341 
 H126  H    -0.333854      0.236034      0.041645 
 H127  H    -0.486141     -0.153049     -0.212034 
 H128  H    -0.475859      0.154844      0.276085 
 C129  C     0.313911     -0.007097      0.030727 
 C130  C    -0.293338      0.002813      0.031652 
 C131  C    -0.484582     -0.197985      0.033441 
 C132  C    -0.488749      0.194029      0.034515 
 C133  C    -0.495047     -0.001475     -0.160651 
 C134  C    -0.493858     -0.001354      0.232072 
 C135  C     0.286404     -0.010104      0.077297 
 C136  C    -0.265231      0.002705     -0.014629 
 C137  C    -0.443862     -0.223333      0.008331 
 C138  C     0.465685      0.223053      0.031244 
 C139  C    -0.498766      0.045323     -0.187787 
 C140  C     0.494625     -0.046963      0.258811 
 C141  C     0.287943      0.003119     -0.015880 
 C142  C    -0.267949      0.002303      0.079646 
 C143  C     0.475729     -0.227533      0.055892 
 C144  C    -0.440126      0.218140      0.032830 
 C145  C    -0.485448     -0.047949     -0.187183 
 C146  C    -0.488106      0.045480      0.258895 
 C147  C    -0.351061      0.004132      0.029469 
 C148  C     0.371717     -0.005474      0.033296 
 C149  C    -0.492945      0.136718      0.039201 
 C150  C    -0.484717     -0.139912      0.034595 
 C151  C    -0.489881     -0.003575      0.174461 
 C152  C    -0.492712      0.000588     -0.102853 
 C153  C     0.339935      0.023905     -0.147117 
 C154  C    -0.328747     -0.018092      0.205970 
 C155  C     0.362160     -0.159748      0.054455 
 C156  C    -0.311899      0.160009      0.013030 
 C157  C    -0.457389     -0.178432     -0.137100 
 C158  C    -0.499918      0.171202      0.196761 
 C159  C     0.296616      0.024969     -0.107028 
 C160  C    -0.280756     -0.016316      0.171653 
 C161  C     0.385085     -0.212488      0.067230 
 C162  C    -0.348732      0.206022      0.015339 
 C163  C    -0.461435     -0.138624     -0.180463 
 C164  C    -0.499639      0.137522      0.245308 
 H165  H     0.323830      0.042807     -0.201239 
 H166  H    -0.319178     -0.033647      0.262554 
 H167  H     0.303389     -0.159383      0.045744 
 H168  H    -0.257145      0.173065     -0.006344 
 H169  H    -0.436900     -0.231679     -0.154209 
 H170  H     0.480668      0.226992      0.204492 
 O171  O    -0.489499     -0.001352      0.035417 
 O172  O     0.317004      0.003491     -0.060208 
 O173  O    -0.298930      0.001482      0.122511 
 O174  O     0.437414     -0.203890      0.083352 
 O175  O    -0.397260      0.187065      0.034248 
 O176  O    -0.483723     -0.092707     -0.158823 
 O177  O    -0.477730      0.088834      0.230398 
 O178  O    -0.372785     -0.020548     -0.007021 
 O179  O     0.470353      0.115060      0.014796 
 O180  O     0.482790     -0.037494      0.151803 
 O181  O    -0.373999      0.030299      0.064025 
 O182  O    -0.460198      0.114236      0.067911 
 O183  O    -0.459197      0.027758      0.152519 
 O184  O     0.394927      0.021923     -0.000165 
 O185  O     0.480361     -0.117646      0.060947 
 O186  O    -0.467195     -0.034665     -0.080151 
 O187  O     0.393256     -0.030857      0.069480 
 O188  O    -0.449590     -0.116978      0.008913 
 O189  O     0.484390      0.038131     -0.080837 
 Zn190  Zn     0.061581     -0.453303      0.057352 
 Zn191  Zn     0.062240      0.459782     -0.028981 
 Zn192  Zn    -0.027852     -0.456360     -0.026279 
 Zn193  Zn    -0.021406      0.457246      0.060327 
 H194  H    -0.179914      0.480750      0.098585 
 H195  H     0.224618      0.495875     -0.067096 
 H196  H     0.100192      0.297467      0.002976 
 H197  H    -0.071055     -0.297285      0.013144 
 H198  H    -0.003814     -0.418004     -0.186012 
 H199  H     0.010449      0.416069      0.218353 
 H200  H    -0.120960     -0.466090     -0.145278 
 H201  H     0.147672      0.458519      0.173951 
 H202  H    -0.144824      0.367284      0.062181 
 H203  H     0.178873     -0.338698     -0.042105 
 H204  H     0.065484      0.341708     -0.119011 
 H205  H     0.002400     -0.343296      0.148801 
 H206  H    -0.137217      0.471503     -0.166841 
 H207  H     0.160004     -0.477185      0.191840 
 H208  H    -0.164828      0.351087     -0.000786 
 H209  H     0.195529     -0.348511      0.023126 
 H210  H     0.001680      0.322717     -0.132624 
 H211  H     0.063062     -0.322021      0.170406 
 H212  H    -0.212547     -0.452523     -0.114094 
 H213  H     0.241829      0.445993      0.151481 
 H214  H    -0.112338      0.277352      0.076703 
 H215  H     0.152385     -0.246123     -0.019880 
 H216  H     0.078587      0.370255     -0.210349 
 H217  H    -0.020771     -0.370979      0.239517 
 H218  H    -0.229136      0.484427     -0.136575 
 H219  H     0.254849     -0.489288      0.171790 
 H220  H    -0.135982      0.258635      0.014401 
 H221  H     0.161822     -0.262111      0.046943 
 H222  H     0.016014      0.346177     -0.227483 
 H223  H     0.040331     -0.347757      0.261698 
 C224  C    -0.176610      0.484719      0.015429 
 C225  C     0.214672     -0.498990      0.015968 
 C226  C     0.017081      0.305571      0.008252 
 C227  C     0.012465     -0.301943      0.012833 
 C228  C     0.006980      0.499268     -0.180074 
 C229  C     0.027036      0.498324      0.212096 
 C230  C    -0.202329      0.484287      0.062878 
 C231  C     0.243848      0.496954     -0.029437 
 C232  C     0.063407      0.277573      0.009157 
 C233  C    -0.034781     -0.275752      0.016099 
 C234  C     0.003016     -0.454029     -0.207084 
 C235  C     0.016212      0.452485      0.239013 
 C236  C    -0.204584      0.489770     -0.030789 
 C237  C     0.238962     -0.499097      0.064569 
 C238  C    -0.030265      0.280398      0.016899 
 C239  C     0.059344     -0.274720      0.015023 
 C240  C     0.016160      0.452808     -0.206481 
 C241  C     0.033131     -0.454937      0.239146 
 C242  C     0.157169     -0.494772      0.011734 
 C243  C    -0.119339      0.492258      0.017162 
 C244  C     0.011905     -0.359617      0.015833 
 C245  C     0.020348      0.363225      0.011548 
 C246  C     0.025789      0.497694      0.154201 
 C247  C     0.011300     -0.498253     -0.122527 
 C248  C    -0.152937     -0.489235     -0.161454 
 C249  C     0.177285      0.483811      0.191236 
 C250  C    -0.160385      0.335350      0.038588 
 C251  C     0.192730     -0.318666     -0.007229 
 C252  C     0.040758      0.325068     -0.149524 
 C253  C     0.022318     -0.326106      0.182317 
 C254  C    -0.197152     -0.491321     -0.122389 
 C255  C     0.224858      0.484781      0.156281 
 C256  C    -0.121143      0.291245      0.037392 
 C257  C     0.153117     -0.278033      0.008390 
 C258  C     0.039464      0.361961     -0.195622 
 C259  C     0.019522     -0.363350      0.227971 
 H260  H    -0.168144     -0.467133     -0.214573 
 H261  H     0.187442      0.466687      0.247340 
 H262  H    -0.214097      0.319750      0.059258 
 H263  H     0.246548     -0.296272     -0.018433 
 H264  H     0.059309      0.269927     -0.161975 
 H265  H     0.000019     -0.271922      0.192891 
 O266  O     0.018603     -0.498152      0.015402 
 O267  O    -0.176651      0.487147     -0.075704 
 O268  O     0.207525     -0.496540      0.107089 
 O269  O    -0.074333      0.309859      0.014269 
 O270  O     0.103771     -0.303092      0.009819 
 O271  O     0.016653      0.408819     -0.177024 
 O272  O     0.043122     -0.410823      0.211711 
 O273  O     0.135428      0.480042     -0.024442 
 O274  O    -0.024155     -0.382796     -0.008154 
 O275  O     0.000514      0.461389      0.132846 
 O276  O     0.134481     -0.465752      0.044101 
 O277  O     0.046728     -0.381001      0.042977 
 O278  O     0.050126     -0.466879      0.130569 
 O279  O    -0.098974     -0.479709     -0.017602 
 O280  O    -0.012855      0.385628      0.039872 
 O281  O     0.040389      0.468849     -0.100508 
 O282  O    -0.095652      0.471168      0.054735 
 O283  O     0.056778      0.385332     -0.013039 
 O284  O    -0.013633     -0.462293     -0.100212 
 Zn285  Zn     0.476271      0.453302     -0.020867 
 Zn286  Zn     0.474536     -0.461744      0.066364 
 Zn287  Zn    -0.436618      0.453291      0.065059 
 Zn288  Zn    -0.438299     -0.459577     -0.021473 
 H289  H     0.312210      0.499735      0.105344 
 H290  H    -0.280498     -0.499723     -0.064946 
 H291  H    -0.399587      0.291501      0.029650 
 H292  H     0.445644     -0.303370      0.071356 
 H293  H    -0.458823     -0.424264     -0.180919 
 H294  H    -0.467907      0.413153      0.225015 
 H295  H     0.388343     -0.465158     -0.136715 
 H296  H    -0.332955      0.444099      0.183093 
 H297  H     0.356266      0.365837      0.067321 
 H298  H    -0.302503     -0.303038     -0.039579 
 H299  H    -0.449492      0.340201     -0.111868 
 H300  H     0.463452     -0.341872      0.161609 
 H301  H     0.376143      0.470332     -0.153996 
 H302  H    -0.307827     -0.499618      0.212461 
 H303  H     0.339320      0.353550      0.002786 
 H304  H    -0.327301     -0.366779     -0.039606 
 H305  H     0.486934      0.319838     -0.123854 
 H306  H    -0.473960     -0.322083      0.179355 
 H307  H     0.293641     -0.453065     -0.114608 
 H308  H    -0.243509      0.428922      0.142501 
 H309  H     0.379149      0.270750      0.078866 
 H310  H    -0.349575     -0.285740      0.044278 
 H311  H    -0.437702      0.362065     -0.206017 
 H312  H     0.447455     -0.377115      0.249891 
 H313  H     0.281795      0.481336     -0.133091 
 H314  H    -0.225181      0.490944      0.167141 
 H315  H     0.362824      0.260244      0.012550 
 H316  H    -0.375791     -0.349230      0.041533 
 H317  H     0.498519      0.339170     -0.219212 
 H318  H    -0.491322     -0.352839      0.271249 
 C319  C     0.322263      0.494743      0.022223 
 C320  C    -0.284097      0.496700      0.018761 
 C321  C    -0.482720      0.301137      0.026522 
 C322  C    -0.482344     -0.306955      0.028013 
 C323  C    -0.478539      0.494386     -0.174374 
 C324  C    -0.477694      0.496251      0.219079 
 C325  C     0.293048      0.498558      0.067670 
 C326  C    -0.258508      0.496251     -0.029048 
 C327  C    -0.437182      0.272113      0.029715 
 C328  C     0.476821     -0.281606      0.052998 
 C329  C    -0.467581     -0.460121     -0.201540 
 C330  C    -0.475908      0.449101      0.245766 
 C331  C     0.297884      0.494386     -0.026320 
 C332  C    -0.256083      0.490359      0.064778 
 C333  C     0.468644      0.277020      0.027810 
 C334  C    -0.441921     -0.277361      0.006858 
 C335  C    -0.487500      0.447941     -0.201046 
 C336  C    -0.488883     -0.457653      0.245633 
 C337  C     0.379966      0.492720      0.025873 
 C338  C    -0.341914      0.498188      0.019604 
 C339  C    -0.478383      0.358406      0.021414 
 C340  C    -0.483932     -0.364892      0.024415 
 C341  C    -0.481024      0.496952     -0.116715 
 C342  C    -0.478460      0.494808      0.161173 
 C343  C     0.358671     -0.490750     -0.153523 
 C344  C    -0.297066      0.461805      0.197870 
 C345  C     0.340024      0.335981      0.041656 
 C346  C    -0.314830     -0.334932     -0.014168 
 C347  C    -0.474148      0.321621     -0.141231 
 C348  C     0.486402     -0.326923      0.194287 
 C349  C     0.311288     -0.491664     -0.118408 
 C350  C    -0.258139      0.467214      0.154275 
 C351  C     0.376166      0.289335      0.040650 
 C352  C    -0.360708     -0.317181      0.017824 
 C353  C    -0.476375      0.355960     -0.189190 
 C354  C     0.486969     -0.367130      0.237486 
 H355  H     0.347790     -0.474030     -0.209545 
 H356  H    -0.275312      0.428736      0.242044 
 H357  H     0.284120      0.324136      0.058335 
 H358  H    -0.268912     -0.352947      0.018923 
 H359  H    -0.455034      0.266032     -0.150667 
 H360  H     0.465492     -0.273550      0.210478 
 O361  O    -0.480704      0.496816      0.022561 
 O362  O     0.329188      0.491399     -0.068866 
 O363  O    -0.282193      0.491524      0.110802 
 O364  O     0.425999      0.308354      0.025679 
 O365  O    -0.400049     -0.298897     -0.016819 
 O366  O    -0.497397      0.404485     -0.172612 
 O367  O    -0.488596     -0.412691      0.217529 
 O368  O     0.401277     -0.482180      0.062357 
 O369  O    -0.441507      0.380223      0.045433 
 O370  O    -0.454187     -0.468155     -0.094948 
 O371  O     0.403399      0.465581     -0.007562 
 O372  O     0.488733      0.380723     -0.007242 
 O373  O     0.489855      0.464856     -0.093813 
 O374  O    -0.364467      0.472450      0.054814 
 O375  O    -0.450541     -0.387085     -0.003938 
 O376  O     0.494702     -0.471047      0.138265 
 O377  O    -0.364152     -0.475381     -0.015366 
 O378  O     0.481016     -0.387732      0.050258 
 O379  O    -0.453053      0.458867      0.139218 
 Zn380  Zn     0.047711      0.045414     -0.427188 
 Zn381  Zn     0.049445     -0.039540      0.485581 
 Zn382  Zn    -0.039400      0.045425      0.486886 
 Zn383  Zn    -0.037719     -0.041707     -0.426582 
 H384  H    -0.195520     -0.001561     -0.383109 
 H385  H     0.211772     -0.001020      0.446602 
 H386  H     0.078338     -0.197914      0.480589 
 H387  H    -0.076431      0.207214     -0.477705 
 H388  H    -0.008111      0.085563      0.326930 
 H389  H    -0.017196     -0.077021     -0.267135 
 H390  H    -0.143063      0.054617      0.368852 
 H391  H     0.135639     -0.036126     -0.311339 
 H392  H    -0.173515     -0.198247     -0.408475 
 H393  H     0.167716      0.132879      0.484624 
 H394  H     0.060530     -0.159412      0.390337 
 H395  H    -0.026526      0.158515     -0.336186 
 H396  H    -0.168192     -0.001666      0.339485 
 H397  H     0.147839      0.028384     -0.294059 
 H398  H    -0.148717     -0.134505     -0.408448 
 H399  H     0.184662      0.145166     -0.450841 
 H400  H    -0.002059     -0.179201      0.372591 
 H401  H     0.037048      0.178878     -0.324200 
 H402  H    -0.232509      0.069794      0.409444 
 H403  H     0.230341     -0.048219     -0.333447 
 H404  H    -0.126443     -0.215544     -0.492333 
 H405  H     0.144832      0.227966      0.473080 
 H406  H     0.076527     -0.124169      0.302054 
 H407  H    -0.038316      0.136651     -0.242038 
 H408  H    -0.250837      0.007771      0.384804 
 H409  H     0.242187      0.017380     -0.314963 
 H410  H    -0.100227     -0.152054     -0.489588 
 H411  H     0.161158      0.238472     -0.460605 
 H412  H     0.015304     -0.148445      0.280696 
 H413  H     0.025463      0.159546     -0.228842 
 C414  C    -0.191921      0.002016     -0.466815 
 C415  C     0.201719      0.003973     -0.470278 
 C416  C     0.006326     -0.194329     -0.476067 
 C417  C     0.006702      0.197578     -0.474577 
 C418  C     0.001676      0.002465      0.332867 
 C419  C     0.002521      0.004330     -0.273680 
 C420  C    -0.217510      0.002465     -0.419007 
 C421  C     0.230934      0.000158      0.484276 
 C422  C     0.047161     -0.219679      0.498947 
 C423  C    -0.038836      0.226603     -0.477770 
 C424  C    -0.000111      0.049615      0.306180 
 C425  C    -0.008437     -0.041163     -0.246514 
 C426  C    -0.219936      0.008357      0.487167 
 C427  C     0.226098      0.004330     -0.421734 
 C428  C    -0.034097     -0.223923     -0.454912 
 C429  C     0.055338      0.221696     -0.475864 
 C430  C     0.012865     -0.043631      0.306313 
 C431  C     0.011482      0.050775     -0.247008 
 C432  C     0.144016      0.005996     -0.473928 
 C433  C    -0.134104      0.000527     -0.467659 
 C434  C     0.002365      0.140310     -0.469469 
 C435  C     0.007914     -0.136392     -0.472470 
 C436  C     0.005006      0.001763     -0.331340 
 C437  C     0.002442      0.003908      0.390773 
 C438  C    -0.178952      0.036911      0.354076 
 C439  C     0.165311     -0.010534     -0.294532 
 C440  C    -0.161188     -0.166353     -0.433887 
 C441  C     0.183958      0.162735     -0.489710 
 C442  C     0.037580     -0.174361      0.357659 
 C443  C    -0.001871      0.177095     -0.306823 
 C444  C    -0.217879      0.031502      0.397670 
 C445  C     0.212693     -0.009621     -0.329647 
 C446  C    -0.115310     -0.184103     -0.465879 
 C447  C     0.147816      0.209381     -0.488704 
 C448  C     0.037013     -0.134154      0.314460 
 C449  C     0.000357      0.142756     -0.258864 
 H450  H    -0.200706      0.069980      0.309901 
 H451  H     0.176192     -0.027254     -0.238510 
 H452  H    -0.207106     -0.148337     -0.466977 
 H453  H     0.239862      0.174579      0.493611 
 H454  H     0.058490     -0.227735      0.341467 
 H455  H    -0.020984      0.232684     -0.297388 
 O456  O     0.004686      0.001899     -0.470615 
 O457  O    -0.193825      0.007192      0.441143 
 O458  O     0.194794      0.007316     -0.379188 
 O459  O    -0.075969     -0.202387     -0.431236 
 O460  O     0.097983      0.190362     -0.473734 
 O461  O     0.012578     -0.088593      0.334417 
 O462  O     0.021379      0.094230     -0.275442 
 O463  O     0.122704     -0.019104      0.489589 
 O464  O    -0.034511      0.118493     -0.493487 
 O465  O    -0.021831     -0.033129     -0.353106 
 O466  O     0.120583      0.033135     -0.440492 
 O467  O     0.035249      0.117992     -0.440813 
 O468  O     0.034127      0.033859     -0.354241 
 O469  O    -0.111551      0.026266      0.497132 
 O470  O    -0.025477     -0.114199     -0.444117 
 O471  O     0.029280     -0.030237      0.413680 
 O472  O    -0.111866     -0.025903     -0.432688 
 O473  O     0.042966     -0.113552     -0.498313 
 O474  O    -0.022965      0.039849      0.412728 
 Zn475  Zn     0.462401     -0.047981      0.494593 
 Zn476  Zn     0.461741      0.038934     -0.419073 
 Zn477  Zn    -0.448166     -0.044924     -0.421775 
 Zn478  Zn    -0.454612      0.041470      0.491619 
 H479  H     0.299363      0.002841     -0.380959 
 H480  H    -0.296104      0.017966      0.453361 
 H481  H    -0.404964     -0.203999     -0.461199 
 H482  H     0.423790      0.201249     -0.451031 
 H483  H    -0.486467      0.082647      0.333592 
 H484  H    -0.472204     -0.083281     -0.262043 
 H485  H     0.376310      0.040197      0.377995 
 H486  H    -0.355058     -0.035194     -0.302777 
 H487  H     0.345109     -0.162586     -0.405949 
 H488  H    -0.331194      0.131432      0.489765 
 H489  H    -0.478418     -0.157988      0.403145 
 H490  H     0.458497      0.157008     -0.329044 
 H491  H     0.363977     -0.024099      0.360106 
 H492  H    -0.338801      0.027213     -0.281213 
 H493  H     0.328453     -0.152773     -0.471181 
 H494  H    -0.311190      0.147628     -0.447268 
 H495  H     0.460920     -0.179264      0.381539 
 H496  H    -0.477698      0.175998     -0.315431 
 H497  H     0.282153      0.052723      0.400465 
 H498  H    -0.263471     -0.048762     -0.333961 
 H499  H     0.371597     -0.255161     -0.428175 
 H500  H    -0.363680      0.221364      0.475242 
 H501  H    -0.455247     -0.130305      0.312428 
 H502  H     0.445395      0.128461     -0.237706 
 H503  H     0.269133     -0.011996      0.380156 
 H504  H    -0.246882      0.014288     -0.311480 
 H505  H     0.362160     -0.239173     -0.494997 
 H506  H    -0.340036      0.240081     -0.462456 
 H507  H     0.483651     -0.153527      0.290248 
 H508  H    -0.492032      0.152539     -0.220571 
 C509  C     0.309310     -0.002295     -0.464022 
 C510  C    -0.299408      0.013997     -0.463483 
 C511  C    -0.488483     -0.199341     -0.460887 
 C512  C    -0.493100      0.193145     -0.456306 
 C513  C     0.496946      0.000392      0.339850 
 C514  C    -0.482998     -0.000552     -0.267981 
 C515  C     0.280134      0.001762     -0.418617 
 C516  C    -0.273689      0.014428      0.489068 
 C517  C    -0.441237     -0.225532     -0.464153 
 C518  C     0.460575      0.221143     -0.457211 
 C519  C    -0.492230      0.046231      0.312933 
 C520  C    -0.479034     -0.047255     -0.240971 
 C521  C     0.285020     -0.002187      0.487376 
 C522  C    -0.271434      0.008946     -0.417266 
 C523  C     0.464638     -0.226564     -0.463077 
 C524  C    -0.445753      0.218318     -0.464953 
 C525  C     0.490851     -0.046347      0.312799 
 C526  C    -0.492178      0.045908     -0.241573 
 C527  C     0.366813     -0.006512     -0.459789 
 C528  C    -0.356679      0.006458     -0.465216 
 C529  C    -0.487923     -0.141667     -0.463888 
 C530  C    -0.496366      0.135491     -0.459603 
 C531  C     0.498193      0.001022      0.397745 
 C532  C    -0.487318     -0.003031     -0.325527 
 C533  C     0.346697      0.014905      0.360710 
 C534  C    -0.323081     -0.012049     -0.286601 
 C535  C     0.331252     -0.182618     -0.440826 
 C536  C    -0.315633      0.163366     -0.486642 
 C537  C    -0.498336     -0.175178      0.369628 
 C538  C     0.483224      0.173648     -0.298530 
 C539  C     0.299124      0.013934      0.395665 
 C540  C    -0.278867     -0.009963     -0.325666 
 C541  C     0.370865     -0.223251     -0.456445 
 C542  C    -0.354875      0.207471     -0.485447 
 C543  C    -0.495540     -0.137934      0.323975 
 C544  C     0.484518      0.136755     -0.252433 
 H545  H     0.336540      0.032029      0.304606 
 H546  H    -0.307875     -0.034151     -0.233482 
 H547  H     0.277434     -0.205012     -0.429621 
 H548  H    -0.261921      0.178966      0.492687 
 H549  H    -0.476037     -0.229362      0.359054 
 H550  H     0.464672      0.228789     -0.286080 
 O551  O    -0.494621     -0.003132     -0.463456 
 O552  O     0.316456     -0.004744      0.444856 
 O553  O    -0.299367      0.011569     -0.372350 
 O554  O     0.420211     -0.198192     -0.457873 
 O555  O    -0.401685      0.188857     -0.462323 
 O556  O     0.480860     -0.090461      0.340234 
 O557  O    -0.492671      0.089897     -0.271030 
 O558  O     0.388554      0.018674     -0.423613 
 O559  O    -0.451863     -0.118489     -0.439900 
 O560  O    -0.476532      0.037327      0.419100 
 O561  O     0.389500     -0.035533     -0.492155 
 O562  O     0.477254     -0.120283     -0.491032 
 O563  O     0.473856     -0.034405      0.421377 
 O564  O    -0.377044     -0.021575     -0.430452 
 O565  O    -0.463163      0.113088     -0.487927 
 O566  O     0.483593      0.029867     -0.347546 
 O567  O    -0.380366      0.027548      0.497211 
 O568  O     0.467204      0.113384     -0.435015 
 O569  O    -0.462386     -0.038991     -0.347843 
 Zn570  Zn    -0.029430      0.457324      0.472356 
 Zn571  Zn    -0.030683     -0.458194     -0.439335 
 Zn572  Zn     0.057038      0.456154     -0.441069 
 Zn573  Zn     0.056525     -0.455916      0.473834 
 H574  H    -0.190690      0.496904     -0.396238 
 H575  H     0.217078     -0.483499      0.438471 
 H576  H     0.095906      0.295013     -0.479440 
 H577  H    -0.063860     -0.299487     -0.438667 
 H578  H     0.035619     -0.418146      0.314106 
 H579  H     0.029162      0.417118     -0.280918 
 H580  H    -0.118507     -0.456805      0.363114 
 H581  H     0.151270      0.451394     -0.314964 
 H582  H    -0.147294      0.369161     -0.436503 
 H583  H     0.152603     -0.368665      0.465924 
 H584  H     0.047359      0.346536      0.385242 
 H585  H    -0.043523     -0.338348     -0.341897 
 H586  H    -0.128893      0.478302      0.346417 
 H587  H     0.169217     -0.485350     -0.297663 
 H588  H    -0.167059      0.355809      0.499947 
 H589  H     0.142421     -0.357240     -0.467941 
 H590  H    -0.015690      0.326020      0.371003 
 H591  H     0.019825     -0.317667     -0.328619 
 H592  H    -0.213218     -0.446576      0.384701 
 H593  H     0.240617      0.434001     -0.348798 
 H594  H    -0.121496      0.275230     -0.424958 
 H595  H     0.159433     -0.269567      0.452765 
 H596  H     0.062934      0.367224      0.291353 
 H597  H    -0.052906     -0.372157     -0.251577 
 H598  H    -0.224435      0.488134      0.364845 
 H599  H     0.260688      0.496794     -0.327891 
 H600  H    -0.142164      0.262682     -0.489699 
 H601  H     0.140532     -0.263111     -0.481396 
 H602  H    -0.000159      0.343872      0.275861 
 H603  H     0.010122     -0.348235     -0.236020 
 C604  C    -0.182680      0.495902     -0.479706 
 C605  C     0.210071     -0.494187     -0.478781 
 C606  C     0.012731      0.304687     -0.482570 
 C607  C     0.008564     -0.303299     -0.481495 
 C608  C     0.017839     -0.499930      0.319873 
 C609  C     0.019029     -0.499810     -0.287403 
 C610  C    -0.210787      0.496011     -0.433425 
 C611  C     0.237578     -0.491180      0.474649 
 C612  C     0.058297      0.275663     -0.479299 
 C613  C    -0.032156     -0.277951     -0.456386 
 C614  C     0.029357     -0.454321      0.293135 
 C615  C     0.022748      0.453393     -0.260268 
 C616  C    -0.208069      0.496413      0.472299 
 C617  C     0.236039      0.495597     -0.432174 
 C618  C    -0.035893      0.280576     -0.480885 
 C619  C     0.048253     -0.273751      0.496053 
 C620  C     0.012088      0.453235      0.293051 
 C621  C     0.009430     -0.453336     -0.260872 
 C622  C    -0.124957      0.494584     -0.477524 
 C623  C     0.152265     -0.495811     -0.481350 
 C624  C     0.016927      0.361998     -0.487255 
 C625  C     0.008699     -0.361372     -0.482649 
 C626  C     0.013863     -0.497709      0.377484 
 C627  C     0.016694      0.498128     -0.345202 
 C628  C    -0.147272     -0.483192      0.345975 
 C629  C     0.184047      0.474811     -0.300938 
 C630  C    -0.164119      0.338707     -0.461084 
 C631  C     0.161822     -0.341536      0.497490 
 C632  C     0.023900      0.327514      0.355184 
 C633  C    -0.018629     -0.322852     -0.310954 
 C634  C    -0.195263     -0.484969      0.380293 
 C635  C     0.227366      0.473747     -0.341026 
 C636  C    -0.127286      0.292693     -0.463393 
 C637  C     0.138897     -0.288796      0.484715 
 C638  C     0.023621      0.361194      0.306637 
 C639  C    -0.014583     -0.362661     -0.267592 
 H640  H    -0.156840     -0.467637      0.289391 
 H641  H     0.200152      0.455909     -0.246815 
 H642  H    -0.218873      0.325650     -0.441710 
 H643  H     0.220593     -0.341901     -0.493799 
 H644  H     0.043314      0.271724      0.347454 
 H645  H    -0.039118     -0.269605     -0.293845 
 O646  O     0.013481     -0.499933     -0.483471 
 O647  O    -0.177088      0.497233      0.429435 
 O648  O     0.206978      0.495225     -0.387847 
 O649  O    -0.078758      0.311651     -0.482303 
 O650  O     0.086568     -0.297394      0.468593 
 O651  O     0.001712      0.409882      0.321548 
 O652  O     0.007704     -0.408577     -0.289231 
 O653  O    -0.103233     -0.480736     -0.441033 
 O654  O     0.053629      0.383655     -0.462850 
 O655  O     0.041192     -0.463790      0.400143 
 O656  O    -0.102019      0.468417      0.487920 
 O657  O    -0.015820      0.384480      0.484035 
 O658  O    -0.016821      0.470958      0.399427 
 O659  O     0.129055      0.476793     -0.447890 
 O660  O     0.043621     -0.383638      0.490999 
 O661  O    -0.008824     -0.466619     -0.367903 
 O662  O     0.130726     -0.470427      0.482466 
 O663  O    -0.026428     -0.384306     -0.456967 
 O664  O     0.039592      0.460584     -0.367217 
 Zn665  Zn    -0.441675     -0.460362     -0.436958 
 Zn666  Zn    -0.444605      0.451944      0.477545 
 Zn667  Zn     0.469741     -0.459337      0.479782 
 Zn668  Zn     0.470820      0.454060     -0.433513 
 H669  H     0.310158      0.479893     -0.396345 
 H670  H    -0.282082      0.495387      0.433149 
 H671  H    -0.408294      0.291552     -0.480231 
 H672  H     0.428895     -0.301865     -0.471730 
 H673  H     0.492868     -0.423228      0.319883 
 H674  H    -0.495692      0.411503     -0.275785 
 H675  H     0.374988     -0.453804      0.356900 
 H676  H    -0.351756      0.454118     -0.322202 
 H677  H     0.346390      0.361973     -0.427800 
 H678  H    -0.322336     -0.341898      0.466506 
 H679  H    -0.443972      0.334838      0.386807 
 H680  H     0.497549     -0.349038     -0.344397 
 H681  H     0.360492      0.481755      0.340860 
 H682  H    -0.339229     -0.481810     -0.303874 
 H683  H     0.329021      0.345002     -0.491283 
 H684  H    -0.302361     -0.350492     -0.469038 
 H685  H     0.493723      0.314940      0.368478 
 H686  H    -0.440515     -0.328053     -0.326210 
 H687  H     0.285075     -0.439899      0.389657 
 H688  H    -0.255224      0.443744     -0.344505 
 H689  H     0.377014      0.271990     -0.410218 
 H690  H    -0.350541     -0.249866      0.489152 
 H691  H    -0.425540      0.364396      0.296025 
 H692  H     0.479218     -0.376610     -0.252716 
 H693  H     0.267501      0.496264      0.369665 
 H694  H    -0.247326     -0.489205     -0.329744 
 H695  H     0.355525      0.252034     -0.472859 
 H696  H    -0.337288     -0.264812     -0.444501 
 H697  H    -0.487651      0.341681      0.275937 
 H698  H    -0.458656     -0.353392     -0.233608 
 C699  C     0.317201      0.490765     -0.479015 
 C700  C    -0.290302      0.495178     -0.483289 
 C701  C    -0.491474      0.299526     -0.476771 
 C702  C    -0.487593     -0.306427     -0.474029 
 C703  C    -0.496650      0.493938      0.325635 
 C704  C    -0.476683      0.493124     -0.282374 
 C705  C     0.289645      0.487498     -0.432524 
 C706  C    -0.262186      0.495511      0.470426 
 C707  C    -0.445135      0.271587     -0.475174 
 C708  C     0.465193     -0.280302     -0.469991 
 C709  C    -0.498779     -0.459009      0.298935 
 C710  C    -0.487236      0.447457     -0.255206 
 C711  C     0.291207     -0.499356      0.474315 
 C712  C    -0.264940      0.494987     -0.435209 
 C713  C     0.461224      0.274286     -0.468088 
 C714  C    -0.440695     -0.279218     -0.471788 
 C715  C    -0.486223      0.447815      0.299004 
 C716  C    -0.467589     -0.460492     -0.255633 
 C717  C    -0.347939      0.497763     -0.485545 
 C718  C     0.374884      0.494472     -0.475933 
 C719  C    -0.488232     -0.364168     -0.474952 
 C720  C    -0.488678      0.357394     -0.477803 
 C721  C    -0.478618      0.492286     -0.340111 
 C722  C    -0.493580      0.495819      0.383432 
 C723  C     0.343611     -0.479155      0.343052 
 C724  C    -0.321715      0.479324     -0.305546 
 C725  C     0.331342      0.329870     -0.451489 
 C726  C    -0.307521     -0.321067     -0.499489 
 C727  C    -0.466235      0.318542      0.354281 
 C728  C    -0.480569     -0.331920     -0.312078 
 C729  C     0.299832     -0.479246      0.382685 
 C730  C    -0.275355      0.481212     -0.342139 
 C731  C     0.369757      0.285111     -0.450103 
 C732  C    -0.347521     -0.281426     -0.482328 
 C733  C    -0.465287      0.356445      0.309045 
 C734  C    -0.481096     -0.369037     -0.266253 
 H735  H     0.327349     -0.462217      0.288317 
 H736  H    -0.309820      0.461250     -0.250039 
 H737  H     0.276501      0.315719     -0.433187 
 H738  H    -0.255001     -0.297047      0.486680 
 H739  H    -0.445584      0.264225      0.341635 
 H740  H     0.498024     -0.277661     -0.300241 
 O741  O    -0.486520      0.496284     -0.478485 
 O742  O     0.320479     -0.499082      0.430105 
 O743  O    -0.295684      0.494189     -0.392046 
 O744  O     0.417239      0.303574     -0.471762 
 O745  O    -0.396210     -0.307379     -0.477740 
 O746  O    -0.488007      0.403321      0.327636 
 O747  O    -0.458290     -0.416528     -0.283502 
 O748  O    -0.370718      0.470862      0.480178 
 O749  O     0.476762     -0.385850      0.498227 
 O750  O     0.492822      0.458256     -0.361037 
 O751  O    -0.369701     -0.472617     -0.453155 
 O752  O    -0.454398     -0.387208     -0.447997 
 O753  O    -0.451328     -0.474721     -0.363947 
 O754  O     0.397501     -0.477710      0.490529 
 O755  O     0.477538      0.381565     -0.451708 
 O756  O    -0.466796      0.461305      0.405953 
 O757  O     0.396838      0.470549     -0.439007 
 O758  O    -0.452240      0.378063      0.496346 
 O759  O     0.482782     -0.467205      0.405564 
loop_  
_geom_bond_atom_site_label_1  
_geom_bond_atom_site_label_2  
Zn0   O76 
Zn0   O86 
Zn0   O87 
Zn0   O88 
Zn1   O76 
Zn1   O83 
Zn1   O91 
Zn1   O93 
Zn2   O76 
Zn2   O84 
Zn2   O89 
Zn2   O94 
Zn3   O76 
Zn3   O85 
Zn3   O90 
Zn3   O92 
H4   C40 
H5   C41 
H6   C42 
H7   C43 
H8   C44 
H9   C45 
H10   C58 
H11   C59 
H12   C60 
H13   C61 
H14   C62 
H15   C63 
H16   C58 
H17   C59 
H18   C60 
H19   C61 
H20   C62 
H21   C63 
H22   C64 
H23   C65 
H24   C66 
H25   C67 
H26   C68 
H27   C69 
H28   C64 
H29   C65 
H30   C66 
H31   C67 
H32   C68 
H33   C69 
C34   C40 
C34   C46 
C34   C52 
C35   C41 
C35   C47 
C35   C53 
C36   C42 
C36   C48 
C36   C54 
C37   C43 
C37   C49 
C37   C55 
C38   C44 
C38   C50 
C38   C56 
C39   C45 
C39   C51 
C39   C57 
C40   C142 
C41   C141 
C42   C239 
C43   C238 
C44   C431 
C45   C430 
C46   O77 
C46   C136 
C47   O78 
C47   C135 
C48   O79 
C48   C233 
C49   O80 
C49   C232 
C50   O81 
C50   C425 
C51   O82 
C51   C424 
C52   O83 
C52   O86 
C53   O89 
C53   O92 
C54   O84 
C54   O87 
C55   O90 
C55   O93 
C56   O85 
C56   O88 
C57   O91 
C57   O94 
C58   C64 
C58   H70 
C59   C65 
C59   H71 
C60   C66 
C60   H72 
C61   C67 
C61   H73 
C62   C68 
C62   H74 
C63   C69 
C63   H75 
C64   O77 
C65   O78 
C66   O79 
C67   O80 
C68   O81 
C69   O82 
Zn95   O171 
Zn95   O181 
Zn95   O182 
Zn95   O183 
Zn96   O171 
Zn96   O178 
Zn96   O186 
Zn96   O188 
Zn97   O171 
Zn97   O179 
Zn97   O184 
Zn97   O189 
Zn98   O171 
Zn98   O180 
Zn98   O185 
Zn98   O187 
H99   C135 
H100   C136 
H101   C137 
H102   C138 
H103   C139 
H104   C140 
H105   C153 
H106   C154 
H107   C155 
H108   C156 
H109   C157 
H110   C158 
H111   C153 
H112   C154 
H113   C155 
H114   C156 
H115   C157 
H116   C158 
H117   C159 
H118   C160 
H119   C161 
H120   C162 
H121   C163 
H122   C164 
H123   C159 
H124   C160 
H125   C161 
H126   C162 
H127   C163 
H128   C164 
C129   C135 
C129   C141 
C129   C148 
C130   C136 
C130   C142 
C130   C147 
C131   C137 
C131   C143 
C131   C150 
C132   C138 
C132   C144 
C132   C149 
C133   C139 
C133   C145 
C133   C152 
C134   C140 
C134   C146 
C134   C151 
C137   C334 
C138   C333 
C139   C526 
C140   C525 
C141   O172 
C142   O173 
C143   O174 
C143   C328 
C144   O175 
C144   C327 
C145   O176 
C145   C520 
C146   O177 
C146   C519 
C147   O178 
C147   O181 
C148   O184 
C148   O187 
C149   O179 
C149   O182 
C150   O185 
C150   O188 
C151   O180 
C151   O183 
C152   O186 
C152   O189 
C153   C159 
C153   H165 
C154   C160 
C154   H166 
C155   C161 
C155   H167 
C156   C162 
C156   H168 
C157   C163 
C157   H169 
C158   C164 
C158   H170 
C159   O172 
C160   O173 
C161   O174 
C162   O175 
C163   O176 
C164   O177 
Zn190   O266 
Zn190   O276 
Zn190   O277 
Zn190   O278 
Zn191   O266 
Zn191   O273 
Zn191   O281 
Zn191   O283 
Zn192   O266 
Zn192   O274 
Zn192   O279 
Zn192   O284 
Zn193   O266 
Zn193   O275 
Zn193   O280 
Zn193   O282 
H194   C230 
H195   C231 
H196   C232 
H197   C233 
H198   C234 
H199   C235 
H200   C248 
H201   C249 
H202   C250 
H203   C251 
H204   C252 
H205   C253 
H206   C248 
H207   C249 
H208   C250 
H209   C251 
H210   C252 
H211   C253 
H212   C254 
H213   C255 
H214   C256 
H215   C257 
H216   C258 
H217   C259 
H218   C254 
H219   C255 
H220   C256 
H221   C257 
H222   C258 
H223   C259 
C224   C230 
C224   C236 
C224   C243 
C225   C231 
C225   C237 
C225   C242 
C226   C232 
C226   C238 
C226   C245 
C227   C233 
C227   C239 
C227   C244 
C228   C234 
C228   C240 
C228   C247 
C229   C235 
C229   C241 
C229   C246 
C230   C332 
C231   C331 
C234   C621 
C235   C620 
C236   O267 
C236   C326 
C237   O268 
C237   C325 
C238   O269 
C239   O270 
C240   O271 
C240   C615 
C241   O272 
C241   C614 
C242   O273 
C242   O276 
C243   O279 
C243   O282 
C244   O274 
C244   O277 
C245   O280 
C245   O283 
C246   O275 
C246   O278 
C247   O281 
C247   O284 
C248   C254 
C248   H260 
C249   C255 
C249   H261 
C250   C256 
C250   H262 
C251   C257 
C251   H263 
C252   C258 
C252   H264 
C253   C259 
C253   H265 
C254   O267 
C255   O268 
C256   O269 
C257   O270 
C258   O271 
C259   O272 
Zn285   O361 
Zn285   O371 
Zn285   O372 
Zn285   O373 
Zn286   O361 
Zn286   O368 
Zn286   O376 
Zn286   O378 
Zn287   O361 
Zn287   O369 
Zn287   O374 
Zn287   O379 
Zn288   O361 
Zn288   O370 
Zn288   O375 
Zn288   O377 
H289   C325 
H290   C326 
H291   C327 
H292   C328 
H293   C329 
H294   C330 
H295   C343 
H296   C344 
H297   C345 
H298   C346 
H299   C347 
H300   C348 
H301   C343 
H302   C344 
H303   C345 
H304   C346 
H305   C347 
H306   C348 
H307   C349 
H308   C350 
H309   C351 
H310   C352 
H311   C353 
H312   C354 
H313   C349 
H314   C350 
H315   C351 
H316   C352 
H317   C353 
H318   C354 
C319   C325 
C319   C331 
C319   C337 
C320   C326 
C320   C332 
C320   C338 
C321   C327 
C321   C333 
C321   C339 
C322   C328 
C322   C334 
C322   C340 
C323   C329 
C323   C335 
C323   C341 
C324   C330 
C324   C336 
C324   C342 
C329   C716 
C330   C715 
C331   O362 
C332   O363 
C333   O364 
C334   O365 
C335   O366 
C335   C710 
C336   O367 
C336   C709 
C337   O368 
C337   O371 
C338   O374 
C338   O377 
C339   O369 
C339   O372 
C340   O375 
C340   O378 
C341   O370 
C341   O373 
C342   O376 
C342   O379 
C343   C349 
C343   H355 
C344   C350 
C344   H356 
C345   C351 
C345   H357 
C346   C352 
C346   H358 
C347   C353 
C347   H359 
C348   C354 
C348   H360 
C349   O362 
C350   O363 
C351   O364 
C352   O365 
C353   O366 
C354   O367 
Zn380   O456 
Zn380   O466 
Zn380   O467 
Zn380   O468 
Zn381   O456 
Zn381   O463 
Zn381   O471 
Zn381   O473 
Zn382   O456 
Zn382   O464 
Zn382   O469 
Zn382   O474 
Zn383   O456 
Zn383   O465 
Zn383   O470 
Zn383   O472 
H384   C420 
H385   C421 
H386   C422 
H387   C423 
H388   C424 
H389   C425 
H390   C438 
H391   C439 
H392   C440 
H393   C441 
H394   C442 
H395   C443 
H396   C438 
H397   C439 
H398   C440 
H399   C441 
H400   C442 
H401   C443 
H402   C444 
H403   C445 
H404   C446 
H405   C447 
H406   C448 
H407   C449 
H408   C444 
H409   C445 
H410   C446 
H411   C447 
H412   C448 
H413   C449 
C414   C420 
C414   C426 
C414   C433 
C415   C421 
C415   C427 
C415   C432 
C416   C422 
C416   C428 
C416   C435 
C417   C423 
C417   C429 
C417   C434 
C418   C424 
C418   C430 
C418   C437 
C419   C425 
C419   C431 
C419   C436 
C420   C522 
C421   C521 
C422   C619 
C423   C618 
C426   O457 
C426   C516 
C427   O458 
C427   C515 
C428   O459 
C428   C613 
C429   O460 
C429   C612 
C430   O461 
C431   O462 
C432   O463 
C432   O466 
C433   O469 
C433   O472 
C434   O464 
C434   O467 
C435   O470 
C435   O473 
C436   O465 
C436   O468 
C437   O471 
C437   O474 
C438   C444 
C438   H450 
C439   C445 
C439   H451 
C440   C446 
C440   H452 
C441   C447 
C441   H453 
C442   C448 
C442   H454 
C443   C449 
C443   H455 
C444   O457 
C445   O458 
C446   O459 
C447   O460 
C448   O461 
C449   O462 
Zn475   O551 
Zn475   O561 
Zn475   O562 
Zn475   O563 
Zn476   O551 
Zn476   O558 
Zn476   O566 
Zn476   O568 
Zn477   O551 
Zn477   O559 
Zn477   O564 
Zn477   O569 
Zn478   O551 
Zn478   O560 
Zn478   O565 
Zn478   O567 
H479   C515 
H480   C516 
H481   C517 
H482   C518 
H483   C519 
H484   C520 
H485   C533 
H486   C534 
H487   C535 
H488   C536 
H489   C537 
H490   C538 
H491   C533 
H492   C534 
H493   C535 
H494   C536 
H495   C537 
H496   C538 
H497   C539 
H498   C540 
H499   C541 
H500   C542 
H501   C543 
H502   C544 
H503   C539 
H504   C540 
H505   C541 
H506   C542 
H507   C543 
H508   C544 
C509   C515 
C509   C521 
C509   C527 
C510   C516 
C510   C522 
C510   C528 
C511   C517 
C511   C523 
C511   C529 
C512   C518 
C512   C524 
C512   C530 
C513   C519 
C513   C525 
C513   C531 
C514   C520 
C514   C526 
C514   C532 
C517   C714 
C518   C713 
C521   O552 
C522   O553 
C523   O554 
C523   C708 
C524   O555 
C524   C707 
C525   O556 
C526   O557 
C527   O558 
C527   O561 
C528   O564 
C528   O567 
C529   O559 
C529   O562 
C530   O565 
C530   O568 
C531   O560 
C531   O563 
C532   O566 
C532   O569 
C533   C539 
C533   H545 
C534   C540 
C534   H546 
C535   C541 
C535   H547 
C536   C542 
C536   H548 
C537   C543 
C537   H549 
C538   C544 
C538   H550 
C539   O552 
C540   O553 
C541   O554 
C542   O555 
C543   O556 
C544   O557 
Zn570   O646 
Zn570   O656 
Zn570   O657 
Zn570   O658 
Zn571   O646 
Zn571   O653 
Zn571   O661 
Zn571   O663 
Zn572   O646 
Zn572   O654 
Zn572   O659 
Zn572   O664 
Zn573   O646 
Zn573   O655 
Zn573   O660 
Zn573   O662 
H574   C610 
H575   C611 
H576   C612 
H577   C613 
H578   C614 
H579   C615 
H580   C628 
H581   C629 
H582   C630 
H583   C631 
H584   C632 
H585   C633 
H586   C628 
H587   C629 
H588   C630 
H589   C631 
H590   C632 
H591   C633 
H592   C634 
H593   C635 
H594   C636 
H595   C637 
H596   C638 
H597   C639 
H598   C634 
H599   C635 
H600   C636 
H601   C637 
H602   C638 
H603   C639 
C604   C610 
C604   C616 
C604   C622 
C605   C611 
C605   C617 
C605   C623 
C606   C612 
C606   C618 
C606   C624 
C607   C613 
C607   C619 
C607   C625 
C608   C614 
C608   C620 
C608   C626 
C609   C615 
C609   C621 
C609   C627 
C610   C712 
C611   C711 
C616   O647 
C616   C706 
C617   O648 
C617   C705 
C618   O649 
C619   O650 
C620   O651 
C621   O652 
C622   O653 
C622   O656 
C623   O659 
C623   O662 
C624   O654 
C624   O657 
C625   O660 
C625   O663 
C626   O655 
C626   O658 
C627   O661 
C627   O664 
C628   C634 
C628   H640 
C629   C635 
C629   H641 
C630   C636 
C630   H642 
C631   C637 
C631   H643 
C632   C638 
C632   H644 
C633   C639 
C633   H645 
C634   O647 
C635   O648 
C636   O649 
C637   O650 
C638   O651 
C639   O652 
Zn665   O741 
Zn665   O751 
Zn665   O752 
Zn665   O753 
Zn666   O741 
Zn666   O748 
Zn666   O756 
Zn666   O758 
Zn667   O741 
Zn667   O749 
Zn667   O754 
Zn667   O759 
Zn668   O741 
Zn668   O750 
Zn668   O755 
Zn668   O757 
H669   C705 
H670   C706 
H671   C707 
H672   C708 
H673   C709 
H674   C710 
H675   C723 
H676   C724 
H677   C725 
H678   C726 
H679   C727 
H680   C728 
H681   C723 
H682   C724 
H683   C725 
H684   C726 
H685   C727 
H686   C728 
H687   C729 
H688   C730 
H689   C731 
H690   C732 
H691   C733 
H692   C734 
H693   C729 
H694   C730 
H695   C731 
H696   C732 
H697   C733 
H698   C734 
C699   C705 
C699   C711 
C699   C718 
C700   C706 
C700   C712 
C700   C717 
C701   C707 
C701   C713 
C701   C720 
C702   C708 
C702   C714 
C702   C719 
C703   C709 
C703   C715 
C703   C722 
C704   C710 
C704   C716 
C704   C721 
C711   O742 
C712   O743 
C713   O744 
C714   O745 
C715   O746 
C716   O747 
C717   O748 
C717   O751 
C718   O754 
C718   O757 
C719   O749 
C719   O752 
C720   O755 
C720   O758 
C721   O750 
C721   O753 
C722   O756 
C722   O759 
C723   C729 
C723   H735 
C724   C730 
C724   H736 
C725   C731 
C725   H737 
C726   C732 
C726   H738 
C727   C733 
C727   H739 
C728   C734 
C728   H740 
C729   O742 
C730   O743 
C731   O744 
C732   O745 
C733   O746 
C734   O747 
  
#END  
