data_
_symmetry_cell_setting           triclinic 
_symmetry_space_group_name_H-M   'P 1' 
_symmetry_Int_Tables_number      1 
loop_ 
_symmetry_equiv_pos_site_id 
_symmetry_equiv_pos_as_xyz 
1 x,y,z 
_cell_length_a             18.374475        
_cell_length_b             10.693879        
_cell_length_c             19.169325        
_cell_angle_alpha          95.185376        
_cell_angle_beta           88.666198        
_cell_angle_gamma          90.757290        
loop_  
_atom_site_label   
_atom_site_type_symbol  
_atom_site_fract_x  
_atom_site_fract_y  
_atom_site_fract_z 
 Cu0  Cu    -0.006638      0.024336      0.073374 
 Cu1  Cu    -0.003377     -0.018648     -0.066476 
 O2  O    -0.078857      0.108367     -0.060315 
 C3  C    -0.109372      0.154466     -0.001104 
 O4  O    -0.087466      0.139531      0.059150 
 O5  O     0.073650      0.107203     -0.051911 
 C6  C     0.096032      0.165904      0.005240 
 O7  O     0.062893      0.166695      0.062291 
 O8  O    -0.078796     -0.136322     -0.056862 
 C9  C    -0.109766     -0.148329      0.001992 
 O10  O    -0.078456     -0.118097      0.060858 
 O11  O     0.064030     -0.157156     -0.050905 
 C12  C     0.101770     -0.139071      0.003443 
 O13  O     0.078922     -0.085981      0.062428 
 Cu14  Cu     0.499227     -0.463769      0.068512 
 Cu15  Cu     0.490802     -0.491140     -0.069526 
 O16  O     0.415786     -0.369409     -0.050046 
 C17  C     0.388332     -0.338219      0.011179 
 O18  O     0.418316     -0.355757      0.070051 
 O19  O    -0.430068     -0.364742     -0.066178 
 C20  C    -0.401062     -0.324186     -0.007764 
 O21  O    -0.432742     -0.329602      0.051728 
 O22  O     0.406063      0.383331     -0.061137 
 C23  C     0.388882      0.365135      0.000108 
 O24  O     0.431304      0.395078      0.053077 
 O25  O    -0.433169      0.381922     -0.064884 
 C26  C    -0.398918      0.365579     -0.009637 
 O27  O    -0.417160      0.414887      0.055059 
 C28  C    -0.199607      0.293357     -0.052990 
 C29  C    -0.185964      0.208255     -0.001246 
 C30  C    -0.241002      0.164784      0.043909 
 C31  C    -0.312137      0.205324      0.030686 
 C32  C    -0.327295      0.298820     -0.012013 
 C33  C    -0.271839      0.333212     -0.058030 
 O34  O    -0.220823      0.081892      0.091215 
 C35  C    -0.271493      0.010412      0.129407 
 C36  C    -0.292729      0.067858      0.205573 
 C37  C    -0.304255      0.210996      0.209493 
 C38  C    -0.301017      0.286041      0.279245 
 O39  O    -0.291302      0.420277     -0.102539 
 C40  C    -0.238441      0.493647     -0.129925 
 C41  C    -0.204381      0.440444     -0.200432 
 C42  C    -0.257026      0.356127     -0.246715 
 C43  C    -0.264247      0.218793     -0.233340 
 H44  H    -0.351895      0.170366      0.064742 
 H45  H    -0.149435      0.318412     -0.085815 
 H46  H    -0.265001     -0.415716     -0.142191 
 H47  H    -0.197540     -0.481924     -0.090878 
 H48  H    -0.321347     -0.013184      0.092859 
 H49  H    -0.251512     -0.085372      0.137055 
 H50  H    -0.180114     -0.481450     -0.228368 
 H51  H    -0.156842      0.394131     -0.187103 
 H52  H    -0.342819      0.040238      0.233809 
 H53  H    -0.244967      0.040576      0.236150 
 H54  H    -0.260271      0.254577      0.177810 
 H55  H    -0.354575      0.230227      0.183963 
 H56  H    -0.309861      0.404278     -0.245999 
 H57  H    -0.241717      0.361846     -0.303374 
 H58  H    -0.314686      0.183607     -0.253688 
 H59  H    -0.211034      0.164835     -0.251675 
 H60  H    -0.260769      0.211923     -0.177279 
 H61  H    -0.304335      0.389713      0.276353 
 H62  H    -0.344483      0.252769      0.312466 
 H63  H    -0.247419      0.267619      0.305961 
 N64  N     0.009229      0.010680      0.318805 
 C65  C     0.075488      0.076094      0.299128 
 C66  C     0.014794     -0.117345      0.283066 
 C67  C    -0.057441      0.075195      0.299620 
 C68  C     0.005620     -0.107117      0.203334 
 H69  H     0.063541     -0.151635      0.296874 
 H70  H    -0.028091     -0.186250      0.303576 
 C71  C     0.078730      0.083342      0.217875 
 H72  H     0.079705      0.173883      0.333438 
 H73  H     0.122224      0.020221      0.312247 
 C74  C    -0.050343      0.097791      0.221491 
 H75  H    -0.104191      0.015091      0.313099 
 H76  H    -0.065566      0.164021      0.332538 
 H77  H     0.088551      0.183086      0.205113 
 H78  H     0.126581      0.032272      0.192866 
 H79  H     0.050156     -0.160845      0.172792 
 H80  H    -0.045748     -0.149160      0.185889 
 H81  H    -0.035836      0.193481      0.206588 
 N82  N     0.011216      0.025486      0.184333 
 H83  H    -0.105911      0.075320      0.197728 
 C84  C     0.218952      0.175846     -0.043407 
 C85  C     0.169149      0.230356      0.006524 
 C86  C     0.192286      0.330696      0.054428 
 C87  C     0.266106      0.363131      0.054648 
 C88  C     0.315532      0.304021      0.008325 
 C89  C     0.291317      0.209200     -0.042438 
 O90  O     0.140286      0.386444      0.099230 
 C91  C     0.149059     -0.484687      0.124206 
 C92  C     0.082212     -0.436975      0.167541 
 C93  C     0.015613     -0.419806      0.121801 
 C94  C    -0.012474      0.469178      0.078084 
 O95  O     0.344091      0.151660     -0.085986 
 C96  C     0.338800      0.015432     -0.104612 
 C97  C     0.409957     -0.033711     -0.138552 
 C98  C     0.469886     -0.043729     -0.088038 
 C99  C    -0.484304      0.077592     -0.073465 
 H100  H     0.298281      0.436368      0.089081 
 H101  H     0.208438      0.100716     -0.085051 
 H102  H     0.329081     -0.034007     -0.059479 
 H103  H     0.292163     -0.002271     -0.136946 
 H104  H     0.197584     -0.466381      0.152604 
 H105  H     0.152162     -0.441125      0.075689 
 H106  H     0.397524     -0.131693     -0.164049 
 H107  H     0.428327      0.023219     -0.178363 
 H108  H     0.060478     -0.491269      0.209105 
 H109  H     0.098437     -0.345874      0.201482 
 H110  H    -0.025435     -0.375667      0.154673 
 H111  H     0.032874     -0.353177      0.086729 
 H112  H     0.446310     -0.071137     -0.037365 
 H113  H    -0.497754     -0.122285     -0.113175 
 H114  H     0.483752      0.142875     -0.038479 
 H115  H    -0.434942      0.054228     -0.043884 
 H116  H    -0.471435      0.116142     -0.122193 
 H117  H     0.015215      0.436190      0.026208 
 H118  H    -0.025399      0.388441      0.104034 
 H119  H    -0.068403     -0.497843      0.056377 
 C120  C     0.264039     -0.348561     -0.028344 
 C121  C     0.314652     -0.280791      0.011394 
 C122  C     0.301352     -0.157866      0.039967 
 C123  C     0.233175     -0.103909      0.029990 
 C124  C     0.177340     -0.178392     -0.001204 
 C125  C     0.194404     -0.301794     -0.034506 
 O126  O     0.354116     -0.092917      0.076869 
 C127  C     0.345808      0.034808      0.099520 
 C128  C     0.404011      0.083388      0.149132 
 C129  C     0.483418      0.070075      0.119100 
 C130  C    -0.481586     -0.067510      0.118780 
 O131  O     0.148580     -0.369145     -0.079638 
 C132  C     0.125554     -0.493897     -0.070170 
 C133  C     0.086464      0.445039     -0.136197 
 C134  C     0.022656     -0.481334     -0.156919 
 C135  C    -0.032984     -0.464155     -0.094575 
 H136  H     0.216866     -0.005018      0.049681 
 H137  H     0.277155     -0.428253     -0.067943 
 H138  H     0.174360      0.446733     -0.068609 
 H139  H     0.092764     -0.489598     -0.020045 
 H140  H     0.344237      0.095505      0.055233 
 H141  H     0.289770      0.045140      0.118679 
 H142  H     0.130513      0.449827     -0.178369 
 H143  H     0.068260      0.350065     -0.134887 
 H144  H     0.397124      0.183004      0.173909 
 H145  H     0.395841      0.035854      0.197211 
 H146  H     0.483480      0.092449      0.065731 
 H147  H    -0.482028      0.142280      0.146658 
 H148  H     0.046081     -0.391134     -0.166790 
 H149  H    -0.001072      0.485471     -0.210361 
 H150  H    -0.045476      0.441653     -0.079889 
 H151  H    -0.014349     -0.409835     -0.048641 
 H152  H    -0.081162     -0.418876     -0.112693 
 H153  H    -0.489323     -0.094336      0.172386 
 H154  H     0.494524     -0.140989      0.082423 
 H155  H    -0.421571     -0.064417      0.118569 
 N156  N     0.493811      0.497695      0.309758 
 C157  C    -0.436954     -0.443143      0.288490 
 C158  C     0.482936      0.374624      0.272194 
 C159  C     0.433354     -0.416895      0.288268 
 C160  C     0.484468      0.383646      0.189881 
 H161  H    -0.481085      0.299631      0.284120 
 H162  H     0.427708      0.342908      0.287701 
 C163  C    -0.434588     -0.438831      0.208574 
 H164  H    -0.440429     -0.347346      0.315156 
 H165  H    -0.391870     -0.493296      0.311395 
 C166  C     0.431794     -0.404649      0.210611 
 H167  H     0.383062     -0.461361      0.307964 
 H168  H     0.430350     -0.323612      0.320650 
 H169  H    -0.424439     -0.340545      0.200070 
 H170  H    -0.390469      0.496326      0.181604 
 H171  H    -0.470572      0.328239      0.162831 
 H172  H     0.432519      0.346119      0.166569 
 H173  H     0.444565     -0.308092      0.191729 
 N174  N     0.494020     -0.486647      0.177528 
 H175  H     0.379582     -0.443873      0.189589 
 C176  C    -0.280172     -0.336796      0.029750 
 C177  C    -0.325573     -0.276515     -0.010530 
 C178  C    -0.306381     -0.176952     -0.049454 
 C179  C    -0.235051     -0.126191     -0.036853 
 C180  C    -0.186890     -0.193518      0.003606 
 C181  C    -0.210228     -0.299191      0.035626 
 O182  O    -0.354011     -0.134199     -0.093564 
 C183  C    -0.320888     -0.057265     -0.146560 
 C184  C    -0.264403     -0.126894     -0.193668 
 C185  C    -0.291536     -0.229708     -0.249640 
 C186  C    -0.232287     -0.255243     -0.309181 
 O187  O    -0.158565     -0.360971      0.071244 
 C188  C    -0.178585     -0.441599      0.123610 
 C189  C    -0.218484     -0.373448      0.184913 
 C190  C    -0.176484     -0.254680      0.222923 
 C191  C    -0.208231     -0.195419      0.293974 
 H192  H    -0.220947     -0.043588     -0.061887 
 H193  H    -0.298201     -0.426637      0.049200 
 H194  H    -0.210150      0.472249      0.092481 
 H195  H    -0.127559     -0.474389      0.144887 
 H196  H    -0.366711     -0.024526     -0.174785 
 H197  H    -0.292715      0.029188     -0.122454 
 H198  H    -0.273413     -0.347197      0.171492 
 H199  H    -0.222637     -0.440690      0.226825 
 H200  H    -0.239629     -0.053558     -0.223108 
 H201  H    -0.219151     -0.157551     -0.160539 
 H202  H    -0.302469     -0.327134     -0.227410 
 H203  H    -0.344542     -0.202866     -0.269697 
 H204  H    -0.124237     -0.299333      0.232964 
 H205  H    -0.161782     -0.184181      0.185777 
 H206  H    -0.208846     -0.258022      0.335321 
 H207  H    -0.176658     -0.117964      0.315308 
 H208  H    -0.262742     -0.160313      0.289796 
 H209  H    -0.258131     -0.320956     -0.349812 
 H210  H    -0.214284     -0.167721     -0.327398 
 H211  H    -0.185893     -0.292586     -0.285095 
 Cu212  Cu     0.000002     -0.016398     -0.426706 
 Cu213  Cu     0.008509     -0.022913      0.434198 
 O214  O    -0.078824      0.078690      0.445082 
 C215  C    -0.102028      0.129990     -0.497953 
 O216  O    -0.072073      0.128165     -0.439631 
 O217  O     0.060512      0.140537      0.461476 
 C218  C     0.101150      0.143836     -0.482422 
 O219  O     0.078672      0.109608     -0.425773 
 O220  O    -0.057378     -0.164314      0.443120 
 C221  C    -0.092869     -0.178319      0.497689 
 O222  O    -0.074453     -0.139280     -0.441470 
 O223  O     0.096313     -0.120298      0.441133 
 C224  C     0.109680     -0.163324      0.498458 
 O225  O     0.069399     -0.159655     -0.445803 
 Cu226  Cu    -0.492363      0.488749     -0.433255 
 Cu227  Cu    -0.496633      0.481778      0.431142 
 O228  O     0.435520     -0.369945      0.451388 
 C229  C     0.398124     -0.365764     -0.488541 
 O230  O     0.418833     -0.415854     -0.434056 
 O231  O    -0.412041     -0.404837      0.439002 
 C232  C    -0.389306     -0.357015     -0.499771 
 O233  O    -0.424687     -0.359860     -0.442644 
 O234  O     0.417236      0.370985      0.431259 
 C235  C     0.401843      0.327326      0.489935 
 O236  O     0.447963      0.321019     -0.460222 
 O237  O    -0.418018      0.350173      0.434955 
 C238  C    -0.384492      0.346017      0.491624 
 O239  O    -0.404442      0.391967     -0.447946 
 C240  C    -0.230346      0.127798      0.464979 
 C241  C    -0.175376      0.195210     -0.498738 
 C242  C    -0.190246      0.309049     -0.461060 
 C243  C    -0.261269      0.356450     -0.467075 
 C244  C    -0.308655      0.292875      0.487884 
 C245  C    -0.298295      0.177138      0.459356 
 O246  O    -0.130576      0.370992     -0.428005 
 C247  C    -0.142210      0.491409     -0.389506 
 C248  C    -0.072786     -0.474174     -0.349718 
 C249  C    -0.008862     -0.431344     -0.393346 
 C250  C     0.034426      0.453948     -0.426983 
 O251  O    -0.357831      0.119974      0.430139 
 C252  C    -0.357943     -0.010801      0.409706 
 C253  C    -0.433551     -0.065997      0.417432 
 C254  C     0.498079      0.006668      0.393589 
 C255  C     0.496871      0.023416      0.313291 
 H256  H    -0.272250      0.433063     -0.432118 
 H257  H    -0.220070      0.037631      0.435711 
 H258  H    -0.330890     -0.026032      0.355827 
 H259  H    -0.325135     -0.062166      0.446919 
 H260  H    -0.145718     -0.438495     -0.428325 
 H261  H    -0.190433      0.486893     -0.358918 
 H262  H    -0.437949     -0.162158      0.395545 
 H263  H    -0.438228     -0.068816      0.473776 
 H264  H    -0.084370     -0.397593     -0.308636 
 H265  H    -0.057037      0.447929     -0.318544 
 H266  H    -0.025721     -0.376396     -0.434151 
 H267  H     0.028277     -0.369172     -0.362958 
 H268  H     0.449389     -0.040337      0.411532 
 H269  H    -0.498981      0.101590      0.419890 
 H270  H    -0.454384      0.084493      0.305309 
 H271  H    -0.492640     -0.061404      0.281260 
 H272  H     0.442741      0.062140      0.296042 
 H273  H    -0.001511      0.383942     -0.456371 
 H274  H     0.071024      0.479321     -0.468464 
 H275  H     0.062453      0.405086     -0.387190 
 N276  N     0.002481     -0.028388     -0.180140 
 C277  C    -0.058489     -0.104334     -0.210397 
 C278  C    -0.008257      0.099851     -0.204299 
 C279  C     0.072722     -0.075655     -0.205760 
 C280  C    -0.003123      0.100114     -0.286505 
 H281  H    -0.061162      0.132066     -0.181282 
 H282  H     0.028833      0.174732     -0.182136 
 C283  C    -0.055907     -0.107151     -0.293426 
 H284  H    -0.052482     -0.202825     -0.193133 
 H285  H    -0.114884     -0.066505     -0.194768 
 C286  C     0.070899     -0.095762     -0.286929 
 H287  H     0.114350      0.001943     -0.190812 
 H288  H     0.091877     -0.157664     -0.182901 
 H289  H    -0.049292     -0.205037     -0.318465 
 H290  H    -0.109999     -0.074536     -0.307934 
 H291  H    -0.053545      0.140771     -0.304612 
 H292  H     0.048781      0.152088     -0.302118 
 H293  H     0.072036     -0.193604     -0.304518 
 N294  N     0.004571     -0.031325     -0.315306 
 H295  H     0.123923     -0.047834     -0.311994 
 C296  C     0.304884      0.197130     -0.452997 
 C297  C     0.325443      0.276155      0.494308 
 C298  C     0.273413      0.307788      0.450015 
 C299  C     0.200881      0.273276      0.460199 
 C300  C     0.179511      0.193017     -0.488923 
 C301  C     0.232302      0.149620     -0.446264 
 O302  O     0.290906      0.373897      0.390344 
 C303  C     0.245480      0.468428      0.372482 
 C304  C     0.196418      0.430446      0.309379 
 C305  C     0.233324      0.364014      0.241674 
 C306  C     0.275319      0.243935      0.258198 
 O307  O     0.214965      0.061358     -0.402866 
 C308  C     0.270343      0.002609     -0.365840 
 C309  C     0.293354      0.075999     -0.299100 
 C310  C     0.232469      0.111050     -0.241504 
 C311  C     0.185492      0.220251     -0.257080 
 H312  H     0.158242      0.309768      0.426463 
 H313  H     0.344621      0.179914     -0.417049 
 H314  H     0.250435     -0.096597     -0.353344 
 H315  H     0.321599     -0.008359     -0.397045 
 H316  H     0.211269      0.498288      0.418157 
 H317  H     0.282170     -0.450727      0.361341 
 H318  H     0.335739      0.017364     -0.279961 
 H319  H     0.325971      0.162070     -0.310852 
 H320  H     0.150475      0.382880      0.328013 
 H321  H     0.178062     -0.479751      0.297624 
 H322  H     0.186962      0.349273      0.205692 
 H323  H     0.271418      0.427547      0.217500 
 H324  H     0.202362      0.021707     -0.244893 
 H325  H     0.249561      0.117673     -0.187926 
 H326  H     0.136069      0.223835     -0.228693 
 H327  H     0.214891      0.306778     -0.236966 
 H328  H     0.173453      0.219954     -0.313561 
 H329  H     0.298884      0.208148      0.207214 
 H330  H     0.317676      0.253753      0.298372 
 H331  H     0.238711      0.162547      0.273172 
 C332  C     0.195718     -0.304072     -0.452971 
 C333  C     0.183336     -0.208939     -0.497542 
 C334  C     0.241611     -0.164090      0.466290 
 C335  C     0.313860     -0.203101      0.476846 
 C336  C     0.330051     -0.296385     -0.479877 
 C337  C     0.269881     -0.338448     -0.439851 
 O338  O     0.232212     -0.067866      0.420815 
 C339  C     0.290870     -0.036953      0.375684 
 C340  C     0.294183     -0.141975      0.319797 
 C341  C     0.227039     -0.140820      0.271328 
 C342  C     0.235274     -0.240200      0.208402 
 O343  O     0.283391     -0.425485     -0.394017 
 C344  C     0.220791     -0.476856     -0.359877 
 C345  C     0.189244     -0.402467     -0.296611 
 C346  C     0.241518     -0.382359     -0.235164 
 C347  C     0.302502     -0.299775     -0.254157 
 H348  H     0.359030     -0.167715      0.443510 
 H349  H     0.151756     -0.347096     -0.425914 
 H350  H     0.181667      0.495723     -0.399906 
 H351  H     0.237978      0.433206     -0.344321 
 H352  H     0.285223      0.059202      0.360152 
 H353  H     0.341278     -0.011675      0.404286 
 H354  H     0.167353     -0.305085     -0.302228 
 H355  H     0.143440     -0.458623     -0.282853 
 H356  H     0.343739     -0.132306      0.284692 
 H357  H     0.296618     -0.231223      0.341030 
 H358  H     0.175279     -0.137104      0.300533 
 H359  H     0.235494     -0.049509      0.251348 
 H360  H     0.211853     -0.341599     -0.190509 
 H361  H     0.255855     -0.473875     -0.219818 
 H362  H     0.286918     -0.200188     -0.258987 
 H363  H     0.340577     -0.288832     -0.211608 
 H364  H     0.334624     -0.329042     -0.300389 
 H365  H     0.228476     -0.331434      0.229353 
 H366  H     0.193936     -0.225592      0.169015 
 H367  H     0.285684     -0.238921      0.177232 
 N368  N     0.493534      0.499326     -0.185851 
 C369  C    -0.445546      0.427144     -0.215438 
 C370  C     0.427564      0.439814     -0.219147 
 C371  C     0.499463     -0.370254     -0.209045 
 C372  C     0.431483      0.440738     -0.299661 
 H373  H     0.421327      0.340897     -0.206583 
 H374  H     0.385203      0.492544     -0.192578 
 C375  C    -0.438799      0.432873     -0.298063 
 H376  H    -0.394348      0.459597     -0.193584 
 H377  H    -0.451665      0.325445     -0.203659 
 C378  C    -0.497793     -0.369225     -0.289454 
 H379  H     0.458206     -0.301877     -0.186830 
 H380  H    -0.451605     -0.327468     -0.187166 
 H381  H    -0.387091      0.472701     -0.317082 
 H382  H    -0.447429      0.334666     -0.322505 
 H383  H     0.427456      0.340856     -0.326062 
 H384  H     0.379342      0.486671     -0.315510 
 H385  H    -0.445937     -0.329125     -0.312644 
 N386  N     0.498303     -0.492765     -0.322059 
 H387  H     0.460135     -0.310923     -0.308751 
 C388  C    -0.221308     -0.151496     -0.463565 
 C389  C    -0.170437     -0.217747      0.495227 
 C390  C    -0.188858     -0.333015      0.453762 
 C391  C    -0.265531     -0.374252      0.454651 
 C392  C    -0.314730     -0.307999      0.499402 
 C393  C    -0.294655     -0.194520     -0.463020 
 O394  O    -0.137600     -0.391205      0.410807 
 C395  C    -0.149334     -0.499585      0.369090 
 C396  C    -0.085518      0.456172      0.322594 
 C397  C    -0.013268      0.432729      0.357188 
 C398  C     0.026211     -0.446360      0.392812 
 O399  O    -0.350083     -0.125856     -0.427450 
 C400  C    -0.338309      0.000161     -0.387442 
 C401  C    -0.409369      0.070988     -0.383166 
 C402  C    -0.468836      0.002141     -0.344505 
 C403  C     0.485262     -0.085379     -0.389684 
 H404  H    -0.275740     -0.464166      0.429028 
 H405  H    -0.204989     -0.073478     -0.430447 
 H406  H    -0.319292      0.000194     -0.334807 
 H407  H    -0.298217      0.059098     -0.413937 
 H408  H    -0.164830      0.426854      0.405027 
 H409  H    -0.194288     -0.483476      0.333869 
 H410  H    -0.395087      0.160904     -0.359207 
 H411  H    -0.433261      0.081848     -0.434638 
 H412  H    -0.097977      0.367834      0.291368 
 H413  H    -0.072061     -0.472257      0.285966 
 H414  H    -0.029466      0.371733      0.397085 
 H415  H     0.025504      0.400418      0.314713 
 H416  H    -0.452063     -0.049231     -0.302584 
 H417  H     0.495668      0.080499     -0.326303 
 H418  H     0.438513     -0.122717     -0.362429 
 H419  H     0.459792     -0.039367     -0.429891 
 H420  H    -0.485133     -0.163811     -0.417500 
 H421  H     0.079157     -0.475696      0.414416 
 H422  H     0.034657     -0.370514      0.355909 
 H423  H    -0.006453     -0.396016      0.438951 
loop_  
_geom_bond_atom_site_label_1  
_geom_bond_atom_site_label_2  
Cu0   Cu1 
Cu0   O4 
Cu0   O7 
Cu0   O10 
Cu0   O13 
Cu0   N82 
Cu1   O2 
Cu1   O5 
Cu1   O8 
Cu1   O11 
Cu1   N276 
O2   C3 
C3   O4 
C3   C29 
O5   C6 
C6   O7 
C6   C85 
O8   C9 
C9   O10 
C9   C180 
O11   C12 
C12   O13 
C12   C124 
Cu14   Cu15 
Cu14   O18 
Cu14   O21 
Cu14   O24 
Cu14   O27 
Cu14   N174 
Cu15   O16 
Cu15   O19 
Cu15   O22 
Cu15   O25 
Cu15   N368 
O16   C17 
C17   O18 
C17   C121 
O19   C20 
C20   O21 
C20   C177 
O22   C23 
C23   O24 
C23   C88 
O25   C26 
C26   O27 
C26   C32 
C28   C29 
C28   C33 
C28   H45 
C29   C30 
C30   C31 
C30   O34 
C31   C32 
C31   H44 
C32   C33 
C33   O39 
O34   C35 
C35   C36 
C35   H48 
C35   H49 
C36   C37 
C36   H52 
C36   H53 
C37   C38 
C37   H54 
C37   H55 
C38   H61 
C38   H62 
C38   H63 
O39   C40 
C40   C41 
C40   H46 
C40   H47 
C41   C42 
C41   H50 
C41   H51 
C42   C43 
C42   H56 
C42   H57 
C43   H58 
C43   H59 
C43   H60 
N64   C65 
N64   C66 
N64   C67 
N64   Cu213 
C65   C71 
C65   H72 
C65   H73 
C66   C68 
C66   H69 
C66   H70 
C67   C74 
C67   H75 
C67   H76 
C68   H79 
C68   H80 
C68   N82 
C71   H77 
C71   H78 
C71   N82 
C74   H81 
C74   N82 
C74   H83 
C84   C85 
C84   C89 
C84   H101 
C85   C86 
C86   C87 
C86   O90 
C87   C88 
C87   H100 
C88   C89 
C89   O95 
O90   C91 
C91   C92 
C91   H104 
C91   H105 
C92   C93 
C92   H108 
C92   H109 
C93   C94 
C93   H110 
C93   H111 
C94   H117 
C94   H118 
C94   H119 
O95   C96 
C96   C97 
C96   H102 
C96   H103 
C97   C98 
C97   H106 
C97   H107 
C98   C99 
C98   H112 
C98   H113 
C99   H114 
C99   H115 
C99   H116 
C120   C121 
C120   C125 
C120   H137 
C121   C122 
C122   C123 
C122   O126 
C123   C124 
C123   H136 
C124   C125 
C125   O131 
O126   C127 
C127   C128 
C127   H140 
C127   H141 
C128   C129 
C128   H144 
C128   H145 
C129   C130 
C129   H146 
C129   H147 
C130   H153 
C130   H154 
C130   H155 
O131   C132 
C132   C133 
C132   H138 
C132   H139 
C133   C134 
C133   H142 
C133   H143 
C134   C135 
C134   H148 
C134   H149 
C135   H150 
C135   H151 
C135   H152 
N156   C157 
N156   C158 
N156   C159 
N156   Cu227 
C157   C163 
C157   H164 
C157   H165 
C158   C160 
C158   H161 
C158   H162 
C159   C166 
C159   H167 
C159   H168 
C160   H171 
C160   H172 
C160   N174 
C163   H169 
C163   H170 
C163   N174 
C166   H173 
C166   N174 
C166   H175 
C176   C177 
C176   C181 
C176   H193 
C177   C178 
C178   C179 
C178   O182 
C179   C180 
C179   H192 
C180   C181 
C181   O187 
O182   C183 
C183   C184 
C183   H196 
C183   H197 
C184   C185 
C184   H200 
C184   H201 
C185   C186 
C185   H202 
C185   H203 
C186   H209 
C186   H210 
C186   H211 
O187   C188 
C188   C189 
C188   H194 
C188   H195 
C189   C190 
C189   H198 
C189   H199 
C190   C191 
C190   H204 
C190   H205 
C191   H206 
C191   H207 
C191   H208 
Cu212   Cu213 
Cu212   O216 
Cu212   O219 
Cu212   O222 
Cu212   O225 
Cu212   N294 
Cu213   O214 
Cu213   O217 
Cu213   O220 
Cu213   O223 
O214   C215 
C215   O216 
C215   C241 
O217   C218 
C218   O219 
C218   C300 
O220   C221 
C221   O222 
C221   C389 
O223   C224 
C224   O225 
C224   C333 
Cu226   Cu227 
Cu226   O230 
Cu226   O233 
Cu226   O236 
Cu226   O239 
Cu226   N386 
Cu227   O228 
Cu227   O231 
Cu227   O234 
Cu227   O237 
O228   C229 
C229   O230 
C229   C336 
O231   C232 
C232   O233 
C232   C392 
O234   C235 
C235   O236 
C235   C297 
O237   C238 
C238   O239 
C238   C244 
C240   C241 
C240   C245 
C240   H257 
C241   C242 
C242   C243 
C242   O246 
C243   C244 
C243   H256 
C244   C245 
C245   O251 
O246   C247 
C247   C248 
C247   H260 
C247   H261 
C248   C249 
C248   H264 
C248   H265 
C249   C250 
C249   H266 
C249   H267 
C250   H273 
C250   H274 
C250   H275 
O251   C252 
C252   C253 
C252   H258 
C252   H259 
C253   C254 
C253   H262 
C253   H263 
C254   C255 
C254   H268 
C254   H269 
C255   H270 
C255   H271 
C255   H272 
N276   C277 
N276   C278 
N276   C279 
C277   C283 
C277   H284 
C277   H285 
C278   C280 
C278   H281 
C278   H282 
C279   C286 
C279   H287 
C279   H288 
C280   H291 
C280   H292 
C280   N294 
C283   H289 
C283   H290 
C283   N294 
C286   H293 
C286   N294 
C286   H295 
C296   C297 
C296   C301 
C296   H313 
C297   C298 
C298   C299 
C298   O302 
C299   C300 
C299   H312 
C300   C301 
C301   O307 
O302   C303 
C303   C304 
C303   H316 
C303   H317 
C304   C305 
C304   H320 
C304   H321 
C305   C306 
C305   H322 
C305   H323 
C306   H329 
C306   H330 
C306   H331 
O307   C308 
C308   C309 
C308   H314 
C308   H315 
C309   C310 
C309   H318 
C309   H319 
C310   C311 
C310   H324 
C310   H325 
C311   H326 
C311   H327 
C311   H328 
C332   C333 
C332   C337 
C332   H349 
C333   C334 
C334   C335 
C334   O338 
C335   C336 
C335   H348 
C336   C337 
C337   O343 
O338   C339 
C339   C340 
C339   H352 
C339   H353 
C340   C341 
C340   H356 
C340   H357 
C341   C342 
C341   H358 
C341   H359 
C342   H365 
C342   H366 
C342   H367 
O343   C344 
C344   C345 
C344   H350 
C344   H351 
C345   C346 
C345   H354 
C345   H355 
C346   C347 
C346   H360 
C346   H361 
C347   H362 
C347   H363 
C347   H364 
N368   C369 
N368   C370 
N368   C371 
C369   C375 
C369   H376 
C369   H377 
C370   C372 
C370   H373 
C370   H374 
C371   C378 
C371   H379 
C371   H380 
C372   H383 
C372   H384 
C372   N386 
C375   H381 
C375   H382 
C375   N386 
C378   H385 
C378   N386 
C378   H387 
C388   C389 
C388   C393 
C388   H405 
C389   C390 
C390   C391 
C390   O394 
C391   C392 
C391   H404 
C392   C393 
C393   O399 
O394   C395 
C395   C396 
C395   H408 
C395   H409 
C396   C397 
C396   H412 
C396   H413 
C397   C398 
C397   H414 
C397   H415 
C398   H421 
C398   H422 
C398   H423 
O399   C400 
C400   C401 
C400   H406 
C400   H407 
C401   C402 
C401   H410 
C401   H411 
C402   C403 
C402   H416 
C402   H417 
C403   H418 
C403   H419 
C403   H420 
  
#END  
