data_
_symmetry_cell_setting           triclinic 
_symmetry_space_group_name_H-M   'P 1' 
_symmetry_Int_Tables_number      1 
loop_ 
_symmetry_equiv_pos_site_id 
_symmetry_equiv_pos_as_xyz 
1 x,y,z 
_cell_length_a             25.851656        
_cell_length_b             25.851657        
_cell_length_c             25.851657        
_cell_angle_alpha          90.000000        
_cell_angle_beta           90.000000        
_cell_angle_gamma          90.000000        
loop_  
_atom_site_label   
_atom_site_type_symbol  
_atom_site_fract_x  
_atom_site_fract_y  
_atom_site_fract_z 
 Zn0  Zn    -0.034343     -0.040923     -0.011097 
 Zn1  Zn    -0.031413      0.046772      0.074401 
 Zn2  Zn     0.054241     -0.041948      0.072163 
 Zn3  Zn     0.053162      0.044655     -0.014542 
 H4  H    -0.193936      0.003328      0.118797 
 H5  H     0.213824      0.018823     -0.051709 
 H6  H     0.095087     -0.199419      0.023676 
 H7  H    -0.067724      0.207163      0.032176 
 H8  H     0.019673      0.087213     -0.172269 
 H9  H     0.031114     -0.078056      0.232062 
 H10  H    -0.124262      0.044598     -0.125852 
 H11  H     0.148993     -0.047481      0.195045 
 H12  H    -0.153682     -0.159387      0.085440 
 H13  H     0.177591      0.136743     -0.020254 
 H14  H     0.026433     -0.152246     -0.103657 
 H15  H    -0.032046      0.163877      0.165139 
 H16  H    -0.136789     -0.019475     -0.144181 
 H17  H     0.163489      0.016961      0.211086 
 H18  H    -0.173657     -0.150793      0.020984 
 H19  H     0.194961      0.153714      0.043228 
 H20  H    -0.035503     -0.173231     -0.121845 
 H21  H     0.030259      0.183776      0.183467 
 H22  H    -0.228346      0.094706      0.210460 
 H23  H     0.241415     -0.074947     -0.163926 
 H24  H     0.210026     -0.119929      0.083990 
 H25  H    -0.190662      0.244171     -0.058621 
 H26  H     0.108212      0.201915     -0.233926 
 H27  H    -0.058397     -0.204066      0.256324 
 H28  H    -0.194937      0.147766      0.236938 
 H29  H     0.223414     -0.139122     -0.177255 
 H30  H     0.197607     -0.180997      0.056688 
 H31  H    -0.203250      0.221721     -0.121486 
 H32  H     0.172061      0.215681     -0.215127 
 H33  H    -0.119701     -0.220800      0.232172 
 H34  H    -0.220794      0.054971     -0.103549 
 H35  H     0.238906     -0.061386      0.162289 
 H36  H    -0.125477     -0.251418      0.062793 
 H37  H     0.146968      0.226726     -0.037836 
 H38  H     0.044764     -0.124674     -0.195338 
 H39  H    -0.050478      0.134319      0.255921 
 H40  H    -0.228692     -0.012079     -0.118310 
 H41  H     0.256481      0.002452      0.182281 
 H42  H    -0.138731     -0.236472     -0.003554 
 H43  H     0.168457      0.246682      0.024804 
 H44  H    -0.017362     -0.147892     -0.214446 
 H45  H     0.011633      0.157035      0.276008 
 H46  H    -0.118255      0.127996      0.181304 
 H47  H     0.131513     -0.118544     -0.151017 
 H48  H     0.186997     -0.219317      0.145047 
 H49  H    -0.166736      0.134164     -0.096967 
 H50  H     0.150758      0.182938     -0.124593 
 H51  H    -0.093623     -0.188343      0.143913 
 H52  H    -0.150291      0.074210      0.154996 
 H53  H     0.150456     -0.055084     -0.135337 
 H54  H     0.203619     -0.159675      0.173483 
 H55  H    -0.151591      0.158220     -0.035246 
 H56  H     0.089336      0.164159     -0.146961 
 H57  H    -0.033122     -0.169658      0.168672 
 H58  H    -0.238502      0.054509      0.298059 
 H59  H     0.140647     -0.021292     -0.215795 
 H60  H     0.291770     -0.120204      0.033721 
 H61  H    -0.232360      0.138923     -0.000387 
 H62  H     0.055218      0.246119     -0.126871 
 H63  H     0.007430     -0.247631      0.158683 
 H64  H    -0.196599      0.012794     -0.214602 
 H65  H     0.225379     -0.011665      0.278856 
 H66  H    -0.214866     -0.236977      0.091832 
 H67  H     0.263621      0.212698      0.010952 
 H68  H     0.003270     -0.240823     -0.179400 
 H69  H    -0.006247      0.251971      0.240569 
 H70  H    -0.159416      0.034681      0.246067 
 H71  H     0.162971     -0.109695     -0.246089 
 H72  H     0.288732     -0.155141      0.128050 
 H73  H    -0.265500      0.156694     -0.088155 
 H74  H     0.141631      0.278636     -0.149581 
 H75  H    -0.080117     -0.284581      0.171571 
 H76  H    -0.213838      0.102875     -0.175613 
 H77  H     0.248954     -0.098972      0.237207 
 H78  H    -0.240660     -0.149716      0.125702 
 H79  H     0.220958      0.232001     -0.077675 
 H80  H     0.091402     -0.197611     -0.193513 
 H81  H    -0.094338      0.207061      0.257569 
 C82  C    -0.185717      0.003538      0.035234 
 C83  C     0.206781      0.007951      0.030960 
 C84  C     0.011575     -0.194857      0.025974 
 C85  C     0.015456      0.199190      0.028716 
 C86  C     0.000665      0.005591     -0.165680 
 C87  C     0.020632      0.004778      0.226310 
 C88  C    -0.213832      0.003205      0.081520 
 C89  C     0.234337      0.011218     -0.015530 
 C90  C     0.058789     -0.220982      0.021936 
 C91  C    -0.030883      0.227129      0.027120 
 C92  C     0.011218      0.051259     -0.192848 
 C93  C     0.022761     -0.042275      0.253011 
 C94  C    -0.211078      0.003729     -0.012845 
 C95  C     0.232775     -0.001929      0.077631 
 C96  C    -0.035323     -0.222066      0.023733 
 C97  C     0.062758      0.224430      0.020034 
 C98  C    -0.008429     -0.040792     -0.192421 
 C99  C     0.010204      0.050901      0.252942 
 C100  C    -0.128079      0.000953      0.037490 
 C101  C     0.149098      0.004244      0.027879 
 C102  C     0.012214     -0.137116      0.026898 
 C103  C     0.012660      0.141322      0.029748 
 C104  C     0.002600      0.006429     -0.107944 
 C105  C     0.017561      0.002897      0.168513 
 C106  C    -0.154303      0.019391     -0.142508 
 C107  C     0.180371     -0.022130      0.208894 
 C108  C    -0.168497     -0.180217      0.051435 
 C109  C     0.192639      0.168846      0.003435 
 C110  C     0.004551     -0.169365     -0.135976 
 C111  C    -0.009784      0.180173      0.197665 
 C112  C    -0.189458      0.108782      0.220628 
 C113  C     0.208822     -0.099094     -0.176861 
 C114  C     0.214632     -0.161780      0.090614 
 C115  C    -0.200498      0.209207     -0.080850 
 C116  C     0.132141      0.212968     -0.200472 
 C117  C    -0.078720     -0.216938      0.221179 
 H118  H    -0.181843      0.147872      0.130482 
 H119  H     0.179684     -0.112876     -0.082759 
 H120  H     0.127808     -0.160502      0.138326 
 H121  H    -0.104084      0.189819     -0.096300 
 H122  H     0.152129      0.118419     -0.177836 
 H123  H    -0.096471     -0.122394      0.195672 
 C124  C    -0.200663      0.017504     -0.105916 
 C125  C     0.224150     -0.022038      0.169260 
 C126  C    -0.128497     -0.219858      0.034273 
 C127  C     0.154224      0.213605      0.002048 
 C128  C     0.005077     -0.132247     -0.181801 
 C129  C    -0.010731      0.142271      0.242900 
 C130  C    -0.156813      0.112953      0.171392 
 C131  C     0.164441     -0.095257     -0.137430 
 C132  C     0.184722     -0.177124      0.139594 
 C133  C    -0.156257      0.169647     -0.075988 
 C134  C     0.129669      0.170179     -0.159267 
 C135  C    -0.074017     -0.174982      0.179226 
 C136  C    -0.165856      0.073603      0.262170 
 C137  C     0.193901     -0.083795     -0.232419 
 C138  C     0.272388     -0.174839      0.094037 
 C139  C    -0.254004      0.189504     -0.063528 
 C140  C     0.115570      0.266698     -0.181075 
 C141  C    -0.058210     -0.270567      0.205316 
 C142  C    -0.166198      0.037466     -0.198015 
 C143  C     0.196633     -0.039068      0.263629 
 C144  C    -0.221017     -0.204237      0.065266 
 C145  C     0.247481      0.182996     -0.014867 
 C146  C     0.025958     -0.223623     -0.147814 
 C147  C    -0.030435      0.234490      0.210310 
 O148  O     0.010502      0.002432      0.030431 
 O149  O    -0.180334      0.004527     -0.056008 
 O150  O     0.203503     -0.002202      0.121840 
 O151  O    -0.079808     -0.193905      0.029686 
 O152  O     0.106742      0.195142      0.023707 
 O153  O    -0.017728     -0.084756     -0.164553 
 O154  O     0.011989      0.095395      0.224310 
 O155  O    -0.105300      0.027854      0.071768 
 O156  O     0.047220     -0.115435      0.053719 
 O157  O     0.031159      0.040459     -0.087018 
 O158  O    -0.106317     -0.028667      0.005101 
 O159  O    -0.021620     -0.114076     -0.000058 
 O160  O    -0.024690     -0.026564     -0.084108 
 O161  O     0.126480     -0.023574      0.061416 
 O162  O     0.046444      0.117151      0.003654 
 O163  O    -0.009222      0.037411      0.145992 
 O164  O     0.127144      0.028167     -0.009048 
 O165  O    -0.023778      0.120653      0.055600 
 O166  O     0.041200     -0.034079      0.146381 
 Zn167  Zn    -0.446588      0.041392      0.079589 
 Zn168  Zn    -0.445335     -0.043090     -0.008720 
 Zn169  Zn     0.466944      0.042562     -0.006985 
 Zn170  Zn     0.467457     -0.045368      0.078111 
 H171  H     0.306904     -0.017785      0.113474 
 H172  H    -0.285328      0.001811     -0.051817 
 H173  H    -0.412158     -0.201797     -0.009388 
 H174  H     0.428076      0.203703      0.031385 
 H175  H     0.494820      0.081598     -0.167136 
 H176  H     0.488363     -0.083139      0.237839 
 H177  H     0.372711      0.047322     -0.133091 
 H178  H    -0.357511     -0.044479      0.188832 
 H179  H     0.371379     -0.132619      0.086021 
 H180  H    -0.328725      0.129555     -0.011551 
 H181  H    -0.432495     -0.162936     -0.106157 
 H182  H     0.476623      0.152180      0.166704 
 H183  H     0.354765     -0.015934     -0.150391 
 H184  H    -0.347125      0.020413      0.205529 
 H185  H     0.381561     -0.144044      0.019887 
 H186  H    -0.308959      0.142906      0.051999 
 H187  H    -0.495843     -0.183617     -0.119436 
 H188  H    -0.460328      0.172696      0.180943 
 H189  H     0.268822      0.079428      0.231663 
 H190  H    -0.230567     -0.088460     -0.175783 
 H191  H    -0.329162     -0.205865      0.069941 
 H192  H     0.311979      0.258184     -0.064357 
 H193  H    -0.407301      0.193784     -0.218954 
 H194  H     0.412644     -0.213762      0.284968 
 H195  H     0.287840      0.143527      0.243682 
 H196  H    -0.252638     -0.150949     -0.191053 
 H197  H    -0.303563     -0.224202      0.130470 
 H198  H     0.299789      0.237549     -0.127951 
 H199  H    -0.343120      0.207792     -0.201632 
 H200  H     0.349399     -0.228753      0.265262 
 H201  H     0.283364      0.064715     -0.099256 
 H202  H    -0.262800     -0.054708      0.167244 
 H203  H     0.364549     -0.231717      0.099181 
 H204  H    -0.354522      0.223485     -0.023096 
 H205  H    -0.423113     -0.129127     -0.196477 
 H206  H     0.461048      0.131491      0.260592 
 H207  H     0.263294      0.001922     -0.120164 
 H208  H    -0.251583      0.010582      0.187100 
 H209  H     0.383450     -0.238173      0.033341 
 H210  H    -0.333854      0.236034      0.041645 
 H211  H    -0.486141     -0.153049     -0.212034 
 H212  H    -0.475859      0.154844      0.276085 
 H213  H     0.378433      0.122112      0.214003 
 H214  H    -0.339014     -0.128063     -0.148018 
 H215  H    -0.328846     -0.134677      0.164593 
 H216  H     0.337090      0.149135     -0.104326 
 H217  H    -0.361268      0.178358     -0.110371 
 H218  H     0.365342     -0.185121      0.179794 
 H219  H     0.358609      0.058492      0.200020 
 H220  H    -0.310972     -0.069835     -0.126881 
 H221  H    -0.359459     -0.122566      0.104869 
 H222  H     0.354781      0.174270     -0.043679 
 H223  H    -0.425140      0.162930     -0.128113 
 H224  H     0.428156     -0.168120      0.199872 
 H225  H     0.372431      0.026470      0.282327 
 H226  H    -0.341418     -0.031092     -0.207378 
 H227  H    -0.238733     -0.220544      0.030117 
 H228  H     0.272528      0.148812     -0.010358 
 H229  H    -0.458584      0.244524     -0.114065 
 H230  H     0.471088     -0.246390      0.178148 
 H231  H     0.291756      0.018749     -0.215519 
 H232  H    -0.290929     -0.006953      0.279748 
 H233  H     0.293388     -0.185086      0.013288 
 H234  H    -0.240924      0.203842      0.018119 
 H235  H    -0.462882     -0.247762     -0.183823 
 H236  H    -0.494400      0.246591      0.232794 
 H237  H     0.349792      0.114557      0.311242 
 H238  H    -0.322819     -0.115627     -0.245562 
 H239  H    -0.265377     -0.132811      0.064541 
 H240  H     0.239831      0.169678     -0.097212 
 H241  H    -0.372399      0.275458     -0.139923 
 H242  H     0.384217     -0.282061      0.191965 
 H243  H     0.279811      0.108195     -0.172544 
 H244  H    -0.265572     -0.096494      0.247662 
 H245  H     0.276851     -0.216596      0.101136 
 H246  H    -0.282402      0.220324     -0.070984 
 H247  H    -0.376844     -0.200734     -0.204189 
 H248  H     0.416303      0.205675      0.254030 
 C249  C     0.313911     -0.007097      0.030727 
 C250  C    -0.293338      0.002813      0.031652 
 C251  C    -0.484582     -0.197985      0.033441 
 C252  C    -0.488749      0.194029      0.034515 
 C253  C    -0.495047     -0.001475     -0.160651 
 C254  C    -0.493858     -0.001354      0.232072 
 C255  C     0.286404     -0.010104      0.077297 
 C256  C    -0.265231      0.002705     -0.014629 
 C257  C    -0.443862     -0.223333      0.008331 
 C258  C     0.465685      0.223053      0.031244 
 C259  C    -0.498766      0.045323     -0.187787 
 C260  C     0.494625     -0.046963      0.258811 
 C261  C     0.287943      0.003119     -0.015880 
 C262  C    -0.267949      0.002303      0.079646 
 C263  C     0.475729     -0.227533      0.055892 
 C264  C    -0.440126      0.218140      0.032830 
 C265  C    -0.485448     -0.047949     -0.187183 
 C266  C    -0.488106      0.045480      0.258895 
 C267  C    -0.351061      0.004132      0.029469 
 C268  C     0.371717     -0.005474      0.033296 
 C269  C    -0.492945      0.136718      0.039201 
 C270  C    -0.484717     -0.139912      0.034595 
 C271  C    -0.489881     -0.003575      0.174461 
 C272  C    -0.492712      0.000588     -0.102853 
 C273  C     0.339935      0.023905     -0.147117 
 C274  C    -0.328747     -0.018092      0.205970 
 C275  C     0.362160     -0.159748      0.054455 
 C276  C    -0.311899      0.160009      0.013030 
 C277  C    -0.457389     -0.178432     -0.137100 
 C278  C    -0.499918      0.171202      0.196761 
 C279  C     0.302091      0.103376      0.243191 
 C280  C    -0.265679     -0.110900     -0.184613 
 C281  C    -0.310695     -0.190690      0.105154 
 C282  C     0.302978      0.223759     -0.087759 
 C283  C    -0.382888      0.206378     -0.186403 
 C284  C     0.388973     -0.222618      0.250708 
 H285  H     0.327481      0.115802      0.147793 
 H286  H    -0.279087     -0.138183     -0.090445 
 H287  H    -0.397596     -0.180683      0.151870 
 H288  H     0.398460      0.205926     -0.107609 
 H289  H    -0.367869      0.111457     -0.160446 
 H290  H     0.367191     -0.126528      0.239382 
 C291  C     0.296616      0.024969     -0.107028 
 C292  C    -0.280756     -0.016316      0.171653 
 C293  C     0.385085     -0.212488      0.067230 
 C294  C    -0.348732      0.206022      0.015339 
 C295  C    -0.461435     -0.138624     -0.180463 
 C296  C    -0.499639      0.137522      0.245308 
 C297  C     0.344907      0.098774      0.202073 
 C298  C    -0.301908     -0.110062     -0.137557 
 C299  C    -0.348536     -0.153621      0.131981 
 C300  C     0.347948      0.185079     -0.084315 
 C301  C    -0.385353      0.165615     -0.143059 
 C302  C     0.388740     -0.175782      0.214083 
 C303  C     0.318597      0.088501      0.298469 
 C304  C    -0.289818     -0.090848     -0.235106 
 C305  C    -0.258697     -0.165835      0.090631 
 C306  C     0.250235      0.201817     -0.071277 
 C307  C    -0.398928      0.261439     -0.170167 
 C308  C     0.408047     -0.273346      0.226167 
 C309  C     0.323830      0.042807     -0.201239 
 C310  C    -0.319178     -0.033647      0.262554 
 C311  C     0.303389     -0.159383      0.045744 
 C312  C    -0.257145      0.173065     -0.006344 
 C313  C    -0.436900     -0.231679     -0.154209 
 C314  C     0.480668      0.226992      0.204492 
 O315  O    -0.489499     -0.001352      0.035417 
 O316  O     0.317004      0.003491     -0.060208 
 O317  O    -0.298930      0.001482      0.122511 
 O318  O     0.437414     -0.203890      0.083352 
 O319  O    -0.397260      0.187065      0.034248 
 O320  O    -0.483723     -0.092707     -0.158823 
 O321  O    -0.477730      0.088834      0.230398 
 O322  O    -0.372785     -0.020548     -0.007021 
 O323  O     0.470353      0.115060      0.014796 
 O324  O     0.482790     -0.037494      0.151803 
 O325  O    -0.373999      0.030299      0.064025 
 O326  O    -0.460198      0.114236      0.067911 
 O327  O    -0.459197      0.027758      0.152519 
 O328  O     0.394927      0.021923     -0.000165 
 O329  O     0.480361     -0.117646      0.060947 
 O330  O    -0.467195     -0.034665     -0.080151 
 O331  O     0.393256     -0.030857      0.069480 
 O332  O    -0.449590     -0.116978      0.008913 
 O333  O     0.484390      0.038131     -0.080837 
 Zn334  Zn     0.061581     -0.453303      0.057352 
 Zn335  Zn     0.062240      0.459782     -0.028981 
 Zn336  Zn    -0.027852     -0.456360     -0.026279 
 Zn337  Zn    -0.021406      0.457246      0.060327 
 H338  H    -0.179914      0.480750      0.098585 
 H339  H     0.224618      0.495875     -0.067096 
 H340  H     0.100192      0.297467      0.002976 
 H341  H    -0.071055     -0.297285      0.013144 
 H342  H    -0.003814     -0.418004     -0.186012 
 H343  H     0.010449      0.416069      0.218353 
 H344  H    -0.120960     -0.466090     -0.145278 
 H345  H     0.147672      0.458519      0.173951 
 H346  H    -0.144824      0.367284      0.062181 
 H347  H     0.178873     -0.338698     -0.042105 
 H348  H     0.065484      0.341708     -0.119011 
 H349  H     0.002400     -0.343296      0.148801 
 H350  H    -0.137217      0.471503     -0.166841 
 H351  H     0.160004     -0.477185      0.191840 
 H352  H    -0.164828      0.351087     -0.000786 
 H353  H     0.195529     -0.348511      0.023126 
 H354  H     0.001680      0.322717     -0.132624 
 H355  H     0.063062     -0.322021      0.170406 
 H356  H    -0.218394     -0.423230      0.210106 
 H357  H     0.274370      0.402929     -0.184933 
 H358  H     0.212943      0.254114      0.105533 
 H359  H    -0.192577     -0.296344     -0.028159 
 H360  H     0.081894     -0.290910     -0.214136 
 H361  H    -0.085387      0.298511      0.282666 
 H362  H    -0.202346     -0.358347      0.222697 
 H363  H     0.251608      0.340124     -0.197511 
 H364  H     0.223974      0.273847      0.169587 
 H365  H    -0.225352     -0.324271     -0.080969 
 H366  H     0.144005     -0.275026     -0.191546 
 H367  H    -0.147284      0.285203      0.257862 
 H368  H    -0.212547     -0.452523     -0.114094 
 H369  H     0.241829      0.445993      0.151481 
 H370  H    -0.112338      0.277352      0.076703 
 H371  H     0.152385     -0.246123     -0.019880 
 H372  H     0.078587      0.370255     -0.210349 
 H373  H    -0.020771     -0.370979      0.239517 
 H374  H    -0.229136      0.484427     -0.136575 
 H375  H     0.254849     -0.489288      0.171790 
 H376  H    -0.135982      0.258635      0.014401 
 H377  H     0.161822     -0.262111      0.046943 
 H378  H     0.016014      0.346177     -0.227483 
 H379  H     0.040331     -0.347757      0.261698 
 H380  H    -0.108666     -0.377955      0.202811 
 H381  H     0.164925      0.366524     -0.156693 
 H382  H     0.191903      0.363498      0.147208 
 H383  H    -0.152160     -0.388375     -0.091593 
 H384  H     0.119987     -0.308525     -0.102934 
 H385  H    -0.117443      0.321464      0.170559 
 H386  H    -0.125444     -0.442210      0.187974 
 H387  H     0.193846      0.425079     -0.137822 
 H388  H     0.178589      0.342589      0.083814 
 H389  H    -0.119208     -0.358690     -0.040321 
 H390  H     0.058863     -0.326807     -0.126651 
 H391  H    -0.059188      0.340220      0.200064 
 H392  H    -0.120499     -0.473514      0.267969 
 H393  H     0.167756      0.462400     -0.219893 
 H394  H     0.260851      0.359384      0.052728 
 H395  H    -0.281966     -0.383972      0.045064 
 H396  H     0.019349     -0.248306     -0.113723 
 H397  H    -0.025472      0.259068      0.175856 
 H398  H    -0.198505     -0.491455     -0.231751 
 H399  H     0.216139      0.492747      0.264827 
 H400  H    -0.230175      0.289035      0.034584 
 H401  H     0.242752     -0.263348     -0.045216 
 H402  H     0.033337      0.252583     -0.190828 
 H403  H     0.021566     -0.254034      0.224894 
 H404  H    -0.145866     -0.384770      0.296057 
 H405  H     0.181766      0.374518     -0.253836 
 H406  H     0.290043      0.337379      0.140940 
 H407  H    -0.193081     -0.387604      0.014045 
 H408  H     0.106791     -0.212012     -0.128760 
 H409  H    -0.111891      0.223950      0.194078 
 H410  H    -0.214805     -0.405332     -0.181889 
 H411  H     0.238277      0.402891      0.227461 
 H412  H    -0.182854      0.273386      0.121777 
 H413  H     0.266892     -0.352452     -0.077187 
 H414  H     0.121564      0.294696     -0.212542 
 H415  H    -0.066565     -0.297730      0.237004 
 C416  C    -0.176610      0.484719      0.015429 
 C417  C     0.214672     -0.498990      0.015968 
 C418  C     0.017081      0.305571      0.008252 
 C419  C     0.012465     -0.301943      0.012833 
 C420  C     0.006980      0.499268     -0.180074 
 C421  C     0.027036      0.498324      0.212096 
 C422  C    -0.202329      0.484287      0.062878 
 C423  C     0.243848      0.496954     -0.029437 
 C424  C     0.063407      0.277573      0.009157 
 C425  C    -0.034781     -0.275752      0.016099 
 C426  C     0.003016     -0.454029     -0.207084 
 C427  C     0.016212      0.452485      0.239013 
 C428  C    -0.204584      0.489770     -0.030789 
 C429  C     0.238962     -0.499097      0.064569 
 C430  C    -0.030265      0.280398      0.016899 
 C431  C     0.059344     -0.274720      0.015023 
 C432  C     0.016160      0.452808     -0.206481 
 C433  C     0.033131     -0.454937      0.239146 
 C434  C     0.157169     -0.494772      0.011734 
 C435  C    -0.119339      0.492258      0.017162 
 C436  C     0.011905     -0.359617      0.015833 
 C437  C     0.020348      0.363225      0.011548 
 C438  C     0.025789      0.497694      0.154201 
 C439  C     0.011300     -0.498253     -0.122527 
 C440  C    -0.152937     -0.489235     -0.161454 
 C441  C     0.177285      0.483811      0.191236 
 C442  C    -0.160385      0.335350      0.038588 
 C443  C     0.192730     -0.318666     -0.007229 
 C444  C     0.040758      0.325068     -0.149524 
 C445  C     0.022318     -0.326106      0.182317 
 C446  C    -0.187100     -0.398096      0.224362 
 C447  C     0.239040      0.380603     -0.193129 
 C448  C     0.223324      0.287854      0.129352 
 C449  C    -0.198334     -0.332843     -0.049171 
 C450  C     0.103340     -0.278771     -0.179402 
 C451  C    -0.106268      0.288676      0.246857 
 H452  H    -0.152017     -0.386725      0.131760 
 H453  H     0.224027      0.357860     -0.097955 
 H454  H     0.127209      0.310560      0.141400 
 H455  H    -0.122018     -0.312628     -0.110118 
 H456  H     0.121625     -0.373682     -0.155709 
 H457  H    -0.125688      0.383727      0.225928 
 C458  C    -0.197152     -0.491321     -0.122389 
 C459  C     0.224858      0.484781      0.156281 
 C460  C    -0.121143      0.291245      0.037392 
 C461  C     0.153117     -0.278033      0.008390 
 C462  C     0.039464      0.361961     -0.195622 
 C463  C     0.019522     -0.363350      0.227971 
 C464  C    -0.140232     -0.402286      0.187893 
 C465  C     0.202261      0.384245     -0.146573 
 C466  C     0.180978      0.329387      0.124241 
 C467  C    -0.146582     -0.351012     -0.072012 
 C468  C     0.099555     -0.321345     -0.137984 
 C469  C    -0.100456      0.333102      0.207790 
 C470  C    -0.175346     -0.411664      0.281172 
 C471  C     0.215785      0.398527     -0.244853 
 C472  C     0.278190      0.305921      0.114759 
 C473  C    -0.222750     -0.372893     -0.012700 
 C474  C     0.083759     -0.225261     -0.162061 
 C475  C    -0.087575      0.235840      0.226957 
 C476  C    -0.168144     -0.467133     -0.214573 
 C477  C     0.187442      0.466687      0.247340 
 C478  C    -0.214097      0.319750      0.059258 
 C479  C     0.246548     -0.296272     -0.018433 
 C480  C     0.059309      0.269927     -0.161975 
 C481  C     0.000019     -0.271922      0.192891 
 O482  O     0.018603     -0.498152      0.015402 
 O483  O    -0.176651      0.487147     -0.075704 
 O484  O     0.207525     -0.496540      0.107089 
 O485  O    -0.074333      0.309859      0.014269 
 O486  O     0.103771     -0.303092      0.009819 
 O487  O     0.016653      0.408819     -0.177024 
 O488  O     0.043122     -0.410823      0.211711 
 O489  O     0.135428      0.480042     -0.024442 
 O490  O    -0.024155     -0.382796     -0.008154 
 O491  O     0.000514      0.461389      0.132846 
 O492  O     0.134481     -0.465752      0.044101 
 O493  O     0.046728     -0.381001      0.042977 
 O494  O     0.050126     -0.466879      0.130569 
 O495  O    -0.098974     -0.479709     -0.017602 
 O496  O    -0.012855      0.385628      0.039872 
 O497  O     0.040389      0.468849     -0.100508 
 O498  O    -0.095652      0.471168      0.054735 
 O499  O     0.056778      0.385332     -0.013039 
 O500  O    -0.013633     -0.462293     -0.100212 
 Zn501  Zn     0.476271      0.453302     -0.020867 
 Zn502  Zn     0.474536     -0.461744      0.066364 
 Zn503  Zn    -0.436618      0.453291      0.065059 
 Zn504  Zn    -0.438299     -0.459577     -0.021473 
 H505  H     0.312210      0.499735      0.105344 
 H506  H    -0.280498     -0.499723     -0.064946 
 H507  H    -0.399587      0.291501      0.029650 
 H508  H     0.445644     -0.303370      0.071356 
 H509  H    -0.458823     -0.424264     -0.180919 
 H510  H    -0.467907      0.413153      0.225015 
 H511  H     0.388343     -0.465158     -0.136715 
 H512  H    -0.332955      0.444099      0.183093 
 H513  H     0.356266      0.365837      0.067321 
 H514  H    -0.302503     -0.303038     -0.039579 
 H515  H    -0.449492      0.340201     -0.111868 
 H516  H     0.463452     -0.341872      0.161609 
 H517  H     0.376143      0.470332     -0.153996 
 H518  H    -0.307827     -0.499618      0.212461 
 H519  H     0.339320      0.353550      0.002786 
 H520  H    -0.327301     -0.366779     -0.039606 
 H521  H     0.486934      0.319838     -0.123854 
 H522  H    -0.473960     -0.322083      0.179355 
 H523  H     0.250521     -0.415041      0.223020 
 H524  H    -0.241998      0.408662     -0.179905 
 H525  H    -0.273610      0.242969      0.111542 
 H526  H     0.353950     -0.295304     -0.020275 
 H527  H    -0.388652     -0.293204     -0.230579 
 H528  H     0.430121      0.298553      0.271572 
 H529  H     0.268132     -0.350915      0.236836 
 H530  H    -0.264836      0.346067     -0.192872 
 H531  H    -0.258200      0.262579      0.174698 
 H532  H     0.331557     -0.280459     -0.082880 
 H533  H    -0.324444     -0.276244     -0.216359 
 H534  H     0.366807      0.285427      0.250819 
 H535  H     0.293641     -0.453065     -0.114608 
 H536  H    -0.243509      0.428922      0.142501 
 H537  H     0.379149      0.270750      0.078866 
 H538  H    -0.349575     -0.285740      0.044278 
 H539  H    -0.437702      0.362065     -0.206017 
 H540  H     0.447455     -0.377115      0.249891 
 H541  H     0.281795      0.481336     -0.133091 
 H542  H    -0.225181      0.490944      0.167141 
 H543  H     0.362824      0.260244      0.012550 
 H544  H    -0.375791     -0.349230      0.041533 
 H545  H     0.498519      0.339170     -0.219212 
 H546  H    -0.491322     -0.352839      0.271249 
 H547  H     0.358697     -0.371277      0.200819 
 H548  H    -0.353403      0.371727     -0.160228 
 H549  H    -0.301178      0.349678      0.155953 
 H550  H     0.358117     -0.370652     -0.111627 
 H551  H    -0.332631     -0.316480     -0.128342 
 H552  H     0.389057      0.316784      0.161442 
 H553  H     0.334208     -0.430907      0.179284 
 H554  H    -0.329453      0.433579     -0.144872 
 H555  H    -0.322050      0.324833      0.096195 
 H556  H     0.383388     -0.382027     -0.049336 
 H557  H    -0.396625     -0.335141     -0.142365 
 H558  H     0.452562      0.330529      0.181843 
 H559  H     0.361150     -0.465239      0.262543 
 H560  H    -0.344514      0.467916     -0.226221 
 H561  H    -0.240522      0.352948      0.055252 
 H562  H     0.263027     -0.280601      0.017590 
 H563  H    -0.439196     -0.258309     -0.121027 
 H564  H     0.486006      0.248088      0.167857 
 H565  H     0.318548     -0.499975     -0.226350 
 H566  H    -0.267708      0.389403      0.227587 
 H567  H     0.267667      0.294974      0.032112 
 H568  H    -0.255974     -0.321052      0.044009 
 H569  H    -0.481245      0.246815     -0.178084 
 H570  H     0.489135     -0.258472      0.242475 
 H571  H     0.336397     -0.379507      0.296796 
 H572  H    -0.326638      0.379539     -0.257924 
 H573  H    -0.204294      0.334896      0.141039 
 H574  H     0.289278     -0.368510     -0.014904 
 H575  H    -0.354623     -0.220439     -0.143033 
 H576  H     0.398566      0.218465      0.189595 
 H577  H     0.296575     -0.410272     -0.190383 
 H578  H    -0.348411      0.410255      0.278406 
 H579  H     0.305029      0.273727      0.122186 
 H580  H    -0.235279     -0.406277     -0.035802 
 H581  H    -0.393363      0.287202     -0.203596 
 H582  H     0.400771     -0.304811      0.253801 
 C583  C     0.322263      0.494743      0.022223 
 C584  C    -0.284097      0.496700      0.018761 
 C585  C    -0.482720      0.301137      0.026522 
 C586  C    -0.482344     -0.306955      0.028013 
 C587  C    -0.478539      0.494386     -0.174374 
 C588  C    -0.477694      0.496251      0.219079 
 C589  C     0.293048      0.498558      0.067670 
 C590  C    -0.258508      0.496251     -0.029048 
 C591  C    -0.437182      0.272113      0.029715 
 C592  C     0.476821     -0.281606      0.052998 
 C593  C    -0.467581     -0.460121     -0.201540 
 C594  C    -0.475908      0.449101      0.245766 
 C595  C     0.297884      0.494386     -0.026320 
 C596  C    -0.256083      0.490359      0.064778 
 C597  C     0.468644      0.277020      0.027810 
 C598  C    -0.441921     -0.277361      0.006858 
 C599  C    -0.487500      0.447941     -0.201046 
 C600  C    -0.488883     -0.457653      0.245633 
 C601  C     0.379966      0.492720      0.025873 
 C602  C    -0.341914      0.498188      0.019604 
 C603  C    -0.478383      0.358406      0.021414 
 C604  C    -0.483932     -0.364892      0.024415 
 C605  C    -0.481024      0.496952     -0.116715 
 C606  C    -0.478460      0.494808      0.161173 
 C607  C     0.358671     -0.490750     -0.153523 
 C608  C    -0.297066      0.461805      0.197870 
 C609  C     0.340024      0.335981      0.041656 
 C610  C    -0.314830     -0.334932     -0.014168 
 C611  C    -0.474148      0.321621     -0.141231 
 C612  C     0.486402     -0.326923      0.194287 
 C613  C     0.283761     -0.390360      0.232961 
 C614  C    -0.276864      0.386899     -0.190989 
 C615  C    -0.264669      0.277222      0.135209 
 C616  C     0.337046     -0.312469     -0.055305 
 C617  C    -0.362669     -0.282492     -0.198602 
 C618  C     0.407291      0.286772      0.237605 
 H619  H     0.302495     -0.364528      0.139165 
 H620  H    -0.300380      0.372849     -0.095326 
 H621  H    -0.359130      0.289741      0.162718 
 H622  H     0.427083     -0.326394     -0.094328 
 H623  H    -0.338628     -0.377863     -0.184926 
 H624  H     0.395046      0.382430      0.213226 
 C625  C     0.311288     -0.491664     -0.118408 
 C626  C    -0.258139      0.467214      0.154275 
 C627  C     0.376166      0.289335      0.040650 
 C628  C    -0.360708     -0.317181      0.017824 
 C629  C    -0.476375      0.355960     -0.189190 
 C630  C     0.486969     -0.367130      0.237486 
 C631  C     0.323024     -0.390821      0.188364 
 C632  C    -0.318230      0.392649     -0.148535 
 C633  C    -0.311675      0.313638      0.135972 
 C634  C     0.375690     -0.351405     -0.077997 
 C635  C    -0.358637     -0.327681     -0.160130 
 C636  C     0.412188      0.328343      0.195243 
 C637  C     0.305756     -0.406825      0.285693 
 C638  C    -0.294053      0.403960     -0.245417 
 C639  C    -0.213969      0.301802      0.116046 
 C640  C     0.284135     -0.335940     -0.041896 
 C641  C    -0.380972     -0.231148     -0.174736 
 C642  C     0.423703      0.231848      0.221285 
 C643  C     0.347790     -0.474030     -0.209545 
 C644  C    -0.275312      0.428736      0.242044 
 C645  C     0.284120      0.324136      0.058335 
 C646  C    -0.268912     -0.352947      0.018923 
 C647  C    -0.455034      0.266032     -0.150667 
 C648  C     0.465492     -0.273550      0.210478 
 O649  O    -0.480704      0.496816      0.022561 
 O650  O     0.329188      0.491399     -0.068866 
 O651  O    -0.282193      0.491524      0.110802 
 O652  O     0.425999      0.308354      0.025679 
 O653  O    -0.400049     -0.298897     -0.016819 
 O654  O    -0.497397      0.404485     -0.172612 
 O655  O    -0.488596     -0.412691      0.217529 
 O656  O     0.401277     -0.482180      0.062357 
 O657  O    -0.441507      0.380223      0.045433 
 O658  O    -0.454187     -0.468155     -0.094948 
 O659  O     0.403399      0.465581     -0.007562 
 O660  O     0.488733      0.380723     -0.007242 
 O661  O     0.489855      0.464856     -0.093813 
 O662  O    -0.364467      0.472450      0.054814 
 O663  O    -0.450541     -0.387085     -0.003938 
 O664  O     0.494702     -0.471047      0.138265 
 O665  O    -0.364152     -0.475381     -0.015366 
 O666  O     0.481016     -0.387732      0.050258 
 O667  O    -0.453053      0.458867      0.139218 
 Zn668  Zn     0.047711      0.045414     -0.427188 
 Zn669  Zn     0.049445     -0.039540      0.485581 
 Zn670  Zn    -0.039400      0.045425      0.486886 
 Zn671  Zn    -0.037719     -0.041707     -0.426582 
 H672  H    -0.195520     -0.001561     -0.383109 
 H673  H     0.211772     -0.001020      0.446602 
 H674  H     0.078338     -0.197914      0.480589 
 H675  H    -0.076431      0.207214     -0.477705 
 H676  H    -0.008111      0.085563      0.326930 
 H677  H    -0.017196     -0.077021     -0.267135 
 H678  H    -0.143063      0.054617      0.368852 
 H679  H     0.135639     -0.036126     -0.311339 
 H680  H    -0.173515     -0.198247     -0.408475 
 H681  H     0.167716      0.132879      0.484624 
 H682  H     0.060530     -0.159412      0.390337 
 H683  H    -0.026526      0.158515     -0.336186 
 H684  H    -0.168192     -0.001666      0.339485 
 H685  H     0.147839      0.028384     -0.294059 
 H686  H    -0.148717     -0.134505     -0.408448 
 H687  H     0.184662      0.145166     -0.450841 
 H688  H    -0.002059     -0.179201      0.372591 
 H689  H     0.037048      0.178878     -0.324200 
 H690  H    -0.234020      0.090054     -0.268150 
 H691  H     0.273461     -0.086243      0.328925 
 H692  H     0.170032     -0.205980     -0.427780 
 H693  H    -0.202408      0.255747      0.440404 
 H694  H     0.093861      0.200163      0.280373 
 H695  H    -0.087367     -0.208080     -0.217475 
 H696  H    -0.211182      0.152649     -0.255182 
 H697  H     0.255850     -0.150370      0.315109 
 H698  H     0.192425     -0.220825     -0.365175 
 H699  H    -0.217818      0.236137      0.377247 
 H700  H     0.157175      0.213289      0.301127 
 H701  H    -0.151574     -0.225041     -0.231695 
 H702  H    -0.232509      0.069794      0.409444 
 H703  H     0.230341     -0.048219     -0.333447 
 H704  H    -0.126443     -0.215544     -0.492333 
 H705  H     0.144832      0.227966      0.473080 
 H706  H     0.076527     -0.124169      0.302054 
 H707  H    -0.038316      0.136651     -0.242038 
 H708  H    -0.250837      0.007771      0.384804 
 H709  H     0.242187      0.017380     -0.314963 
 H710  H    -0.100227     -0.152054     -0.489588 
 H711  H     0.161158      0.238472     -0.460605 
 H712  H     0.015304     -0.148445      0.280696 
 H713  H     0.025463      0.159546     -0.228842 
 H714  H    -0.122615      0.126989     -0.287826 
 H715  H     0.165285     -0.130008      0.351127 
 H716  H     0.165865     -0.130632     -0.336427 
 H717  H    -0.174840      0.149038      0.395992 
 H718  H     0.134924      0.181932      0.390503 
 H719  H    -0.143387     -0.184804     -0.319713 
 H720  H    -0.146565      0.065136     -0.303183 
 H721  H     0.189774     -0.070378      0.372661 
 H722  H     0.140594     -0.119257     -0.398719 
 H723  H    -0.153968      0.173883      0.455751 
 H724  H     0.071419      0.168187      0.370103 
 H725  H    -0.079393     -0.166143     -0.305689 
 H726  H    -0.131505      0.030800     -0.221833 
 H727  H     0.162832     -0.036045      0.289403 
 H728  H     0.260955     -0.220683     -0.465644 
 H729  H    -0.235496      0.145768      0.496694 
 H730  H     0.037975      0.250627      0.384088 
 H731  H    -0.036822     -0.242975     -0.327028 
 H732  H    -0.208310      0.109313      0.324358 
 H733  H     0.205434     -0.001309     -0.221704 
 H734  H    -0.220044     -0.180232     -0.492063 
 H735  H     0.256315      0.203742     -0.480166 
 H736  H     0.034847     -0.242812      0.309471 
 H737  H     0.005227      0.251901     -0.269970 
 H738  H    -0.149380      0.119177     -0.190131 
 H739  H     0.187584     -0.121778      0.255149 
 H740  H     0.234703     -0.132774     -0.433151 
 H741  H    -0.271724      0.163820      0.410907 
 H742  H     0.125416      0.280251      0.362351 
 H743  H    -0.121395     -0.280846     -0.305022 
 H744  H    -0.127607      0.088460      0.273539 
 H745  H     0.227406     -0.091013     -0.257671 
 H746  H    -0.240739     -0.095007     -0.412253 
 H747  H     0.218953      0.224989      0.429759 
 H748  H     0.123211     -0.196473      0.298144 
 H749  H    -0.082655      0.211514     -0.244459 
 C750  C    -0.191921      0.002016     -0.466815 
 C751  C     0.201719      0.003973     -0.470278 
 C752  C     0.006326     -0.194329     -0.476067 
 C753  C     0.006702      0.197578     -0.474577 
 C754  C     0.001676      0.002465      0.332867 
 C755  C     0.002521      0.004330     -0.273680 
 C756  C    -0.217510      0.002465     -0.419007 
 C757  C     0.230934      0.000158      0.484276 
 C758  C     0.047161     -0.219679      0.498947 
 C759  C    -0.038836      0.226603     -0.477770 
 C760  C    -0.000111      0.049615      0.306180 
 C761  C    -0.008437     -0.041163     -0.246514 
 C762  C    -0.219936      0.008357      0.487167 
 C763  C     0.226098      0.004330     -0.421734 
 C764  C    -0.034097     -0.223923     -0.454912 
 C765  C     0.055338      0.221696     -0.475864 
 C766  C     0.012865     -0.043631      0.306313 
 C767  C     0.011482      0.050775     -0.247008 
 C768  C     0.144016      0.005996     -0.473928 
 C769  C    -0.134104      0.000527     -0.467659 
 C770  C     0.002365      0.140310     -0.469469 
 C771  C     0.007914     -0.136392     -0.472470 
 C772  C     0.005006      0.001763     -0.331340 
 C773  C     0.002442      0.003908      0.390773 
 C774  C    -0.178952      0.036911      0.354076 
 C775  C     0.165311     -0.010534     -0.294532 
 C776  C    -0.161188     -0.166353     -0.433887 
 C777  C     0.183958      0.162735     -0.489710 
 C778  C     0.037580     -0.174361      0.357659 
 C779  C    -0.001871      0.177095     -0.306823 
 C780  C    -0.199154      0.111817     -0.257065 
 C781  C     0.240221     -0.110924      0.318985 
 C782  C     0.186936     -0.188815     -0.392750 
 C783  C    -0.211349      0.221494      0.416736 
 C784  C     0.116691      0.211944      0.314341 
 C785  C    -0.113349     -0.218792     -0.249453 
 H786  H    -0.175638      0.125867     -0.352729 
 H787  H     0.221486     -0.136756      0.412781 
 H788  H     0.096899     -0.174891     -0.353727 
 H789  H    -0.116888      0.208975      0.389228 
 H790  H     0.128936      0.116285      0.338720 
 H791  H    -0.137390     -0.123421     -0.263129 
 C792  C    -0.217879      0.031502      0.397670 
 C793  C     0.212693     -0.009621     -0.329647 
 C794  C    -0.115310     -0.184103     -0.465879 
 C795  C     0.147816      0.209381     -0.488704 
 C796  C     0.037013     -0.134154      0.314460 
 C797  C     0.000357      0.142756     -0.258864 
 C798  C    -0.157788      0.106067     -0.299519 
 C799  C     0.200958     -0.110463      0.363582 
 C800  C     0.148292     -0.149879     -0.370058 
 C801  C    -0.164343      0.185078      0.415974 
 C802  C     0.111794      0.170372      0.356703 
 C803  C    -0.117382     -0.173604     -0.287924 
 C804  C    -0.181965      0.094756     -0.202637 
 C805  C     0.218225     -0.094459      0.266252 
 C806  C     0.239847     -0.165344     -0.406159 
 C807  C    -0.262049      0.196914      0.435899 
 C808  C     0.100279      0.266868      0.330660 
 C809  C    -0.095046     -0.270137     -0.273319 
 C810  C    -0.200706      0.069980      0.309901 
 C811  C     0.176192     -0.027254     -0.238510 
 C812  C    -0.207106     -0.148337     -0.466977 
 C813  C     0.239862      0.174579      0.493611 
 C814  C     0.058490     -0.227735      0.341467 
 C815  C    -0.020984      0.232684     -0.297388 
 O816  O     0.004686      0.001899     -0.470615 
 O817  O    -0.193825      0.007192      0.441143 
 O818  O     0.194794      0.007316     -0.379188 
 O819  O    -0.075969     -0.202387     -0.431236 
 O820  O     0.097983      0.190362     -0.473734 
 O821  O     0.012578     -0.088593      0.334417 
 O822  O     0.021379      0.094230     -0.275442 
 O823  O     0.122704     -0.019104      0.489589 
 O824  O    -0.034511      0.118493     -0.493487 
 O825  O    -0.021831     -0.033129     -0.353106 
 O826  O     0.120583      0.033135     -0.440492 
 O827  O     0.035249      0.117992     -0.440813 
 O828  O     0.034127      0.033859     -0.354241 
 O829  O    -0.111551      0.026266      0.497132 
 O830  O    -0.025477     -0.114199     -0.444117 
 O831  O     0.029280     -0.030237      0.413680 
 O832  O    -0.111866     -0.025903     -0.432688 
 O833  O     0.042966     -0.113552     -0.498313 
 O834  O    -0.022965      0.039849      0.412728 
 Zn835  Zn     0.462401     -0.047981      0.494593 
 Zn836  Zn     0.461741      0.038934     -0.419073 
 Zn837  Zn    -0.448166     -0.044924     -0.421775 
 Zn838  Zn    -0.454612      0.041470      0.491619 
 H839  H     0.299363      0.002841     -0.380959 
 H840  H    -0.296104      0.017966      0.453361 
 H841  H    -0.404964     -0.203999     -0.461199 
 H842  H     0.423790      0.201249     -0.451031 
 H843  H    -0.486467      0.082647      0.333592 
 H844  H    -0.472204     -0.083281     -0.262043 
 H845  H     0.376310      0.040197      0.377995 
 H846  H    -0.355058     -0.035194     -0.302777 
 H847  H     0.345109     -0.162586     -0.405949 
 H848  H    -0.331194      0.131432      0.489765 
 H849  H    -0.478418     -0.157988      0.403145 
 H850  H     0.458497      0.157008     -0.329044 
 H851  H     0.363977     -0.024099      0.360106 
 H852  H    -0.338801      0.027213     -0.281213 
 H853  H     0.328453     -0.152773     -0.471181 
 H854  H    -0.311190      0.147628     -0.447268 
 H855  H     0.460920     -0.179264      0.381539 
 H856  H    -0.477698      0.175998     -0.315431 
 H857  H     0.249612      0.095786     -0.263122 
 H858  H    -0.257624     -0.078055      0.341840 
 H859  H    -0.283441     -0.204941     -0.419896 
 H860  H     0.311039      0.244602      0.446413 
 H861  H    -0.390631      0.200204      0.269280 
 H862  H     0.442088     -0.210374     -0.233919 
 H863  H     0.272374      0.158592     -0.250543 
 H864  H    -0.273672     -0.142937      0.329249 
 H865  H    -0.250666     -0.177013     -0.367085 
 H866  H     0.300008      0.224869      0.382359 
 H867  H    -0.328734      0.213513      0.294083 
 H868  H     0.379976     -0.226258     -0.256509 
 H869  H     0.282153      0.052723      0.400465 
 H870  H    -0.263471     -0.048762     -0.333961 
 H871  H     0.371597     -0.255161     -0.428175 
 H872  H    -0.363680      0.221364      0.475242 
 H873  H    -0.455247     -0.130305      0.312428 
 H874  H     0.445395      0.128461     -0.237706 
 H875  H     0.269133     -0.011996      0.380156 
 H876  H    -0.246882      0.014288     -0.311480 
 H877  H     0.362160     -0.239173     -0.494997 
 H878  H    -0.340036      0.240081     -0.462456 
 H879  H     0.483651     -0.153527      0.290248 
 H880  H    -0.492032      0.152539     -0.220571 
 H881  H     0.359057      0.132191     -0.291362 
 H882  H    -0.367352     -0.123329      0.349134 
 H883  H    -0.323858     -0.112909     -0.356462 
 H884  H     0.332079      0.135217      0.404738 
 H885  H    -0.358575      0.177252      0.381386 
 H886  H     0.403995     -0.192759     -0.345121 
 H887  H     0.330136      0.073637     -0.310232 
 H888  H    -0.350574     -0.059074      0.363971 
 H889  H    -0.356810     -0.142595     -0.407733 
 H890  H     0.345393      0.156127      0.468131 
 H891  H    -0.416830      0.158495      0.351882 
 H892  H     0.465119     -0.174477     -0.321403 
 H893  H     0.356226      0.036315     -0.228161 
 H894  H    -0.355519     -0.027771      0.283976 
 H895  H    -0.194052     -0.117312     -0.493119 
 H896  H     0.263131      0.139332      0.499218 
 H897  H    -0.450546      0.239648      0.376089 
 H898  H    -0.495368     -0.252979     -0.334331 
 H899  H     0.307843      0.005969      0.287119 
 H900  H    -0.277513     -0.009829     -0.216304 
 H901  H     0.281230     -0.237936     -0.402839 
 H902  H    -0.245843      0.209681     -0.482639 
 H903  H    -0.497584     -0.247250      0.327051 
 H904  H     0.490645      0.246133     -0.257227 
 H905  H     0.342215      0.124198     -0.194218 
 H906  H    -0.330152     -0.116515      0.255888 
 H907  H    -0.282937     -0.113681     -0.462099 
 H908  H     0.233939      0.161336      0.411006 
 H909  H    -0.364127      0.274766      0.357868 
 H910  H     0.417191     -0.289272     -0.319294 
 H911  H     0.285705      0.095825      0.324485 
 H912  H    -0.261213     -0.095953     -0.266165 
 H913  H     0.257090     -0.148832     -0.370867 
 H914  H    -0.293164      0.225330      0.430169 
 H915  H    -0.409453     -0.203554      0.314942 
 H916  H     0.402418      0.204020     -0.235512 
 C917  C     0.309310     -0.002295     -0.464022 
 C918  C    -0.299408      0.013997     -0.463483 
 C919  C    -0.488483     -0.199341     -0.460887 
 C920  C    -0.493100      0.193145     -0.456306 
 C921  C     0.496946      0.000392      0.339850 
 C922  C    -0.482998     -0.000552     -0.267981 
 C923  C     0.280134      0.001762     -0.418617 
 C924  C    -0.273689      0.014428      0.489068 
 C925  C    -0.441237     -0.225532     -0.464153 
 C926  C     0.460575      0.221143     -0.457211 
 C927  C    -0.492230      0.046231      0.312933 
 C928  C    -0.479034     -0.047255     -0.240971 
 C929  C     0.285020     -0.002187      0.487376 
 C930  C    -0.271434      0.008946     -0.417266 
 C931  C     0.464638     -0.226564     -0.463077 
 C932  C    -0.445753      0.218318     -0.464953 
 C933  C     0.490851     -0.046347      0.312799 
 C934  C    -0.492178      0.045908     -0.241573 
 C935  C     0.366813     -0.006512     -0.459789 
 C936  C    -0.356679      0.006458     -0.465216 
 C937  C    -0.487923     -0.141667     -0.463888 
 C938  C    -0.496366      0.135491     -0.459603 
 C939  C     0.498193      0.001022      0.397745 
 C940  C    -0.487318     -0.003031     -0.325527 
 C941  C     0.346697      0.014905      0.360710 
 C942  C    -0.323081     -0.012049     -0.286601 
 C943  C     0.331252     -0.182618     -0.440826 
 C944  C    -0.315633      0.163366     -0.486642 
 C945  C    -0.498336     -0.175178      0.369628 
 C946  C     0.483224      0.173648     -0.298530 
 C947  C     0.284942      0.118113     -0.254925 
 C948  C    -0.288918     -0.103188      0.327583 
 C949  C    -0.277684     -0.168441     -0.398883 
 C950  C     0.300658      0.210862      0.422593 
 C951  C    -0.369751      0.210040      0.305089 
 C952  C     0.420642     -0.222514     -0.268653 
 H953  H     0.299955      0.140856     -0.350099 
 H954  H    -0.324001     -0.114559      0.420185 
 H955  H    -0.354001     -0.188656     -0.337937 
 H956  H     0.396772      0.188156      0.410546 
 H957  H    -0.350330      0.114989      0.326018 
 H958  H     0.402357     -0.127603     -0.292345 
 C959  C     0.299124      0.013934      0.395665 
 C960  C    -0.278867     -0.009963     -0.325666 
 C961  C     0.370865     -0.223251     -0.456445 
 C962  C    -0.354875      0.207471     -0.485447 
 C963  C    -0.495540     -0.137934      0.323975 
 C964  C     0.484518      0.136755     -0.252433 
 C965  C     0.321721      0.114471     -0.301481 
 C966  C    -0.335786     -0.098998      0.364053 
 C967  C    -0.329436     -0.150272     -0.376042 
 C968  C     0.343003      0.169329      0.427705 
 C969  C    -0.375563      0.165614      0.344155 
 C970  C     0.424427     -0.179939     -0.310070 
 C971  C     0.308197      0.100189     -0.203201 
 C972  C    -0.300672     -0.089620      0.270774 
 C973  C    -0.253268     -0.128391     -0.435354 
 C974  C     0.245792      0.192795      0.437187 
 C975  C    -0.388443      0.262876      0.324989 
 C976  C     0.440223     -0.276023     -0.285993 
 C977  C     0.336540      0.032029      0.304606 
 C978  C    -0.307875     -0.034151     -0.233482 
 C979  C     0.277434     -0.205012     -0.429621 
 C980  C    -0.261921      0.178966      0.492687 
 C981  C    -0.476037     -0.229362      0.359054 
 C982  C     0.464672      0.228789     -0.286080 
 O983  O    -0.494621     -0.003132     -0.463456 
 O984  O     0.316456     -0.004744      0.444856 
 O985  O    -0.299367      0.011569     -0.372350 
 O986  O     0.420211     -0.198192     -0.457873 
 O987  O    -0.401685      0.188857     -0.462323 
 O988  O     0.480860     -0.090461      0.340234 
 O989  O    -0.492671      0.089897     -0.271030 
 O990  O     0.388554      0.018674     -0.423613 
 O991  O    -0.451863     -0.118489     -0.439900 
 O992  O    -0.476532      0.037327      0.419100 
 O993  O     0.389500     -0.035533     -0.492155 
 O994  O     0.477254     -0.120283     -0.491032 
 O995  O     0.473856     -0.034405      0.421377 
 O996  O    -0.377044     -0.021575     -0.430452 
 O997  O    -0.463163      0.113088     -0.487927 
 O998  O     0.483593      0.029867     -0.347546 
 O999  O    -0.380366      0.027548      0.497211 
 O1000  O     0.467204      0.113384     -0.435015 
 O1001  O    -0.462386     -0.038991     -0.347843 
 Zn1002  Zn    -0.029430      0.457324      0.472356 
 Zn1003  Zn    -0.030683     -0.458194     -0.439335 
 Zn1004  Zn     0.057038      0.456154     -0.441069 
 Zn1005  Zn     0.056525     -0.455916      0.473834 
 H1006  H    -0.190690      0.496904     -0.396238 
 H1007  H     0.217078     -0.483499      0.438471 
 H1008  H     0.095906      0.295013     -0.479440 
 H1009  H    -0.063860     -0.299487     -0.438667 
 H1010  H     0.035619     -0.418146      0.314106 
 H1011  H     0.029162      0.417118     -0.280918 
 H1012  H    -0.118507     -0.456805      0.363114 
 H1013  H     0.151270      0.451394     -0.314964 
 H1014  H    -0.147294      0.369161     -0.436503 
 H1015  H     0.152603     -0.368665      0.465924 
 H1016  H     0.047359      0.346536      0.385242 
 H1017  H    -0.043523     -0.338348     -0.341897 
 H1018  H    -0.128893      0.478302      0.346417 
 H1019  H     0.169217     -0.485350     -0.297663 
 H1020  H    -0.167059      0.355809      0.499947 
 H1021  H     0.142421     -0.357240     -0.467941 
 H1022  H    -0.015690      0.326020      0.371003 
 H1023  H     0.019825     -0.317667     -0.328619 
 H1024  H    -0.245451     -0.412825     -0.272271 
 H1025  H     0.255160      0.419288      0.320282 
 H1026  H     0.212003      0.240532     -0.383698 
 H1027  H    -0.146856     -0.295419      0.482004 
 H1028  H     0.111338     -0.287523      0.266978 
 H1029  H    -0.068717      0.304932     -0.229100 
 H1030  H    -0.223380     -0.350335     -0.257002 
 H1031  H     0.236142      0.355189      0.308264 
 H1032  H     0.224193      0.261167     -0.320103 
 H1033  H    -0.172455     -0.277083      0.421475 
 H1034  H     0.174583     -0.272531      0.286683 
 H1035  H    -0.132898      0.290924     -0.246423 
 H1036  H    -0.213218     -0.446576      0.384701 
 H1037  H     0.240617      0.434001     -0.348798 
 H1038  H    -0.121496      0.275230     -0.424958 
 H1039  H     0.159433     -0.269567      0.452765 
 H1040  H     0.062934      0.367224      0.291353 
 H1041  H    -0.052906     -0.372157     -0.251577 
 H1042  H    -0.224435      0.488134      0.364845 
 H1043  H     0.260688      0.496794     -0.327891 
 H1044  H    -0.142164      0.262682     -0.489699 
 H1045  H     0.140532     -0.263111     -0.481396 
 H1046  H    -0.000159      0.343872      0.275861 
 H1047  H     0.010122     -0.348235     -0.236020 
 H1048  H    -0.137004     -0.373222     -0.300037 
 H1049  H     0.145549      0.376604      0.337943 
 H1050  H     0.186892      0.349581     -0.343729 
 H1051  H    -0.147172     -0.366608      0.387353 
 H1052  H     0.158640     -0.316163      0.372151 
 H1053  H    -0.114750      0.320358     -0.337684 
 H1054  H    -0.165046     -0.431449     -0.321174 
 H1055  H     0.165372      0.440224      0.351925 
 H1056  H     0.169201      0.324446     -0.404376 
 H1057  H    -0.116559     -0.378718      0.447076 
 H1058  H     0.095826     -0.333165      0.352074 
 H1059  H    -0.050879      0.335786     -0.319941 
 H1060  H    -0.134600     -0.470193     -0.240677 
 H1061  H     0.151551      0.472245      0.269618 
 H1062  H     0.251454      0.349904     -0.437696 
 H1063  H    -0.237285     -0.280740     -0.478172 
 H1064  H     0.052894     -0.254894      0.373798 
 H1065  H    -0.017434      0.254192     -0.333990 
 H1066  H    -0.185090     -0.494332      0.272198 
 H1067  H     0.232225      0.479966     -0.232536 
 H1068  H    -0.235094      0.294874     -0.466174 
 H1069  H     0.230594     -0.316198     -0.461342 
 H1070  H     0.018381      0.252125      0.319152 
 H1071  H    -0.013136     -0.253522     -0.264231 
 H1072  H    -0.153199     -0.385658     -0.202492 
 H1073  H     0.174190      0.384159      0.240703 
 H1074  H     0.284151      0.329038     -0.350843 
 H1075  H    -0.210642     -0.368473      0.487404 
 H1076  H     0.139765     -0.219223      0.359980 
 H1077  H    -0.103619      0.223258     -0.308132 
 H1078  H    -0.210446     -0.404790      0.304283 
 H1079  H     0.244171      0.390521     -0.275511 
 H1080  H    -0.193616      0.278392     -0.377071 
 H1081  H     0.247131     -0.284688      0.450809 
 H1082  H     0.107679      0.293041      0.297916 
 H1083  H    -0.099174     -0.300550     -0.243865 
 C1084  C    -0.182680      0.495902     -0.479706 
 C1085  C     0.210071     -0.494187     -0.478781 
 C1086  C     0.012731      0.304687     -0.482570 
 C1087  C     0.008564     -0.303299     -0.481495 
 C1088  C     0.017839     -0.499930      0.319873 
 C1089  C     0.019029     -0.499810     -0.287403 
 C1090  C    -0.210787      0.496011     -0.433425 
 C1091  C     0.237578     -0.491180      0.474649 
 C1092  C     0.058297      0.275663     -0.479299 
 C1093  C    -0.032156     -0.277951     -0.456386 
 C1094  C     0.029357     -0.454321      0.293135 
 C1095  C     0.022748      0.453393     -0.260268 
 C1096  C    -0.208069      0.496413      0.472299 
 C1097  C     0.236039      0.495597     -0.432174 
 C1098  C    -0.035893      0.280576     -0.480885 
 C1099  C     0.048253     -0.273751      0.496053 
 C1100  C     0.012088      0.453235      0.293051 
 C1101  C     0.009430     -0.453336     -0.260872 
 C1102  C    -0.124957      0.494584     -0.477524 
 C1103  C     0.152265     -0.495811     -0.481350 
 C1104  C     0.016927      0.361998     -0.487255 
 C1105  C     0.008699     -0.361372     -0.482649 
 C1106  C     0.013863     -0.497709      0.377484 
 C1107  C     0.016694      0.498128     -0.345202 
 C1108  C    -0.147272     -0.483192      0.345975 
 C1109  C     0.184047      0.474811     -0.300938 
 C1110  C    -0.164119      0.338707     -0.461084 
 C1111  C     0.161822     -0.341536      0.497490 
 C1112  C     0.023900      0.327514      0.355184 
 C1113  C    -0.018629     -0.322852     -0.310954 
 C1114  C    -0.210339     -0.390384     -0.263441 
 C1115  C     0.221891      0.395339      0.308754 
 C1116  C     0.221004      0.274957     -0.360295 
 C1117  C    -0.165323     -0.310595      0.446792 
 C1118  C     0.135008     -0.278666      0.301238 
 C1119  C    -0.093130      0.292338     -0.261651 
 H1120  H    -0.196932     -0.363101     -0.357610 
 H1121  H     0.196501      0.382914      0.404153 
 H1122  H     0.125522      0.292790     -0.340445 
 H1123  H    -0.078422     -0.320601      0.400076 
 H1124  H     0.156791     -0.374756      0.312563 
 H1125  H    -0.108149      0.387259     -0.287609 
 C1126  C    -0.195263     -0.484969      0.380293 
 C1127  C     0.227366      0.473747     -0.341026 
 C1128  C    -0.127286      0.292693     -0.463393 
 C1129  C     0.138897     -0.288796      0.484715 
 C1130  C     0.023621      0.361194      0.306637 
 C1131  C    -0.014583     -0.362661     -0.267592 
 C1132  C    -0.174110     -0.391222     -0.310497 
 C1133  C     0.179075      0.399942      0.349873 
 C1134  C     0.176033      0.313637     -0.363739 
 C1135  C    -0.127483     -0.347664      0.419964 
 C1136  C     0.135242     -0.325502      0.337863 
 C1137  C    -0.090665      0.333101     -0.304995 
 C1138  C    -0.186200     -0.410437     -0.212949 
 C1139  C     0.205385      0.410215      0.253477 
 C1140  C     0.273747      0.296899     -0.376777 
 C1141  C    -0.217321     -0.335449      0.461315 
 C1142  C     0.115935     -0.227938      0.325779 
 C1143  C    -0.077090      0.237277     -0.277887 
 C1144  C    -0.156840     -0.467637      0.289391 
 C1145  C     0.200152      0.455909     -0.246815 
 C1146  C    -0.218873      0.325650     -0.441710 
 C1147  C     0.220593     -0.341901     -0.493799 
 C1148  C     0.043314      0.271724      0.347454 
 C1149  C    -0.039118     -0.269605     -0.293845 
 O1150  O     0.013481     -0.499933     -0.483471 
 O1151  O    -0.177088      0.497233      0.429435 
 O1152  O     0.206978      0.495225     -0.387847 
 O1153  O    -0.078758      0.311651     -0.482303 
 O1154  O     0.086568     -0.297394      0.468593 
 O1155  O     0.001712      0.409882      0.321548 
 O1156  O     0.007704     -0.408577     -0.289231 
 O1157  O    -0.103233     -0.480736     -0.441033 
 O1158  O     0.053629      0.383655     -0.462850 
 O1159  O     0.041192     -0.463790      0.400143 
 O1160  O    -0.102019      0.468417      0.487920 
 O1161  O    -0.015820      0.384480      0.484035 
 O1162  O    -0.016821      0.470958      0.399427 
 O1163  O     0.129055      0.476793     -0.447890 
 O1164  O     0.043621     -0.383638      0.490999 
 O1165  O    -0.008824     -0.466619     -0.367903 
 O1166  O     0.130726     -0.470427      0.482466 
 O1167  O    -0.026428     -0.384306     -0.456967 
 O1168  O     0.039592      0.460584     -0.367217 
 Zn1169  Zn    -0.441675     -0.460362     -0.436958 
 Zn1170  Zn    -0.444605      0.451944      0.477545 
 Zn1171  Zn     0.469741     -0.459337      0.479782 
 Zn1172  Zn     0.470820      0.454060     -0.433513 
 H1173  H     0.310158      0.479893     -0.396345 
 H1174  H    -0.282082      0.495387      0.433149 
 H1175  H    -0.408294      0.291552     -0.480231 
 H1176  H     0.428895     -0.301865     -0.471730 
 H1177  H     0.492868     -0.423228      0.319883 
 H1178  H    -0.495692      0.411503     -0.275785 
 H1179  H     0.374988     -0.453804      0.356900 
 H1180  H    -0.351756      0.454118     -0.322202 
 H1181  H     0.346390      0.361973     -0.427800 
 H1182  H    -0.322336     -0.341898      0.466506 
 H1183  H    -0.443972      0.334838      0.386807 
 H1184  H     0.497549     -0.349038     -0.344397 
 H1185  H     0.360492      0.481755      0.340860 
 H1186  H    -0.339229     -0.481810     -0.303874 
 H1187  H     0.329021      0.345002     -0.491283 
 H1188  H    -0.302361     -0.350492     -0.469038 
 H1189  H     0.493723      0.314940      0.368478 
 H1190  H    -0.440515     -0.328053     -0.326210 
 H1191  H     0.282567     -0.426337     -0.284128 
 H1192  H    -0.247672      0.404009      0.341485 
 H1193  H    -0.285356      0.254545     -0.389433 
 H1194  H     0.313956     -0.381356      0.467956 
 H1195  H    -0.417621     -0.297218      0.295622 
 H1196  H     0.415770      0.296801     -0.214128 
 H1197  H     0.300568     -0.362162     -0.270799 
 H1198  H    -0.281081      0.350950      0.315008 
 H1199  H    -0.272768      0.276995     -0.326568 
 H1200  H     0.326374     -0.320288      0.495257 
 H1201  H    -0.356317     -0.280484      0.319773 
 H1202  H     0.351921      0.283035     -0.232928 
 H1203  H     0.285075     -0.439899      0.389657 
 H1204  H    -0.255224      0.443744     -0.344505 
 H1205  H     0.377014      0.271990     -0.410218 
 H1206  H    -0.350541     -0.249866      0.489152 
 H1207  H    -0.425540      0.364396      0.296025 
 H1208  H     0.479218     -0.376610     -0.252716 
 H1209  H     0.267501      0.496264      0.369665 
 H1210  H    -0.247326     -0.489205     -0.329744 
 H1211  H     0.355525      0.252034     -0.472859 
 H1212  H    -0.337288     -0.264812     -0.444501 
 H1213  H    -0.487651      0.341681      0.275937 
 H1214  H    -0.458656     -0.353392     -0.233608 
 H1215  H     0.392469     -0.382740     -0.297038 
 H1216  H    -0.357763      0.370720      0.370642 
 H1217  H    -0.309282      0.364552     -0.351088 
 H1218  H     0.336984     -0.281967      0.406898 
 H1219  H    -0.382395     -0.312941      0.408032 
 H1220  H     0.373224      0.315778     -0.323462 
 H1221  H     0.373526     -0.446201     -0.312717 
 H1222  H    -0.325727      0.424506      0.396949 
 H1223  H    -0.324428      0.340496     -0.412809 
 H1224  H     0.320363     -0.341609      0.378463 
 H1225  H    -0.442896     -0.331626      0.383274 
 H1226  H     0.434646      0.334557     -0.301094 
 H1227  H     0.383335     -0.479992     -0.232260 
 H1228  H    -0.237516      0.444207      0.253886 
 H1229  H    -0.243659      0.359793     -0.447668 
 H1230  H     0.232211     -0.381080     -0.481775 
 H1231  H    -0.483448     -0.253653      0.393262 
 H1232  H     0.468763      0.252597     -0.321184 
 H1233  H     0.298603     -0.489619      0.273089 
 H1234  H    -0.279420      0.485922     -0.233452 
 H1235  H     0.260361      0.286018     -0.459006 
 H1236  H    -0.261152     -0.264307      0.460113 
 H1237  H    -0.469772      0.246745      0.311376 
 H1238  H    -0.479288     -0.260461     -0.268655 
 H1239  H     0.361011     -0.391589     -0.201966 
 H1240  H    -0.316602      0.464035      0.305879 
 H1241  H    -0.210519      0.342022     -0.359900 
 H1242  H     0.235250     -0.346144      0.423896 
 H1243  H    -0.395901     -0.216703      0.380375 
 H1244  H     0.382351      0.220080     -0.298474 
 H1245  H     0.275028     -0.402312      0.314739 
 H1246  H    -0.262181      0.395841     -0.272442 
 H1247  H     0.303024      0.266714     -0.370379 
 H1248  H    -0.235359     -0.351568      0.426243 
 H1249  H    -0.381680      0.291655      0.294377 
 H1250  H     0.432580     -0.303673     -0.254542 
 C1251  C     0.317201      0.490765     -0.479015 
 C1252  C    -0.290302      0.495178     -0.483289 
 C1253  C    -0.491474      0.299526     -0.476771 
 C1254  C    -0.487593     -0.306427     -0.474029 
 C1255  C    -0.496650      0.493938      0.325635 
 C1256  C    -0.476683      0.493124     -0.282374 
 C1257  C     0.289645      0.487498     -0.432524 
 C1258  C    -0.262186      0.495511      0.470426 
 C1259  C    -0.445135      0.271587     -0.475174 
 C1260  C     0.465193     -0.280302     -0.469991 
 C1261  C    -0.498779     -0.459009      0.298935 
 C1262  C    -0.487236      0.447457     -0.255206 
 C1263  C     0.291207     -0.499356      0.474315 
 C1264  C    -0.264940      0.494987     -0.435209 
 C1265  C     0.461224      0.274286     -0.468088 
 C1266  C    -0.440695     -0.279218     -0.471788 
 C1267  C    -0.486223      0.447815      0.299004 
 C1268  C    -0.467589     -0.460492     -0.255633 
 C1269  C    -0.347939      0.497763     -0.485545 
 C1270  C     0.374884      0.494472     -0.475933 
 C1271  C    -0.488232     -0.364168     -0.474952 
 C1272  C    -0.488678      0.357394     -0.477803 
 C1273  C    -0.478618      0.492286     -0.340111 
 C1274  C    -0.493580      0.495819      0.383432 
 C1275  C     0.343611     -0.479155      0.343052 
 C1276  C    -0.321715      0.479324     -0.305546 
 C1277  C     0.331342      0.329870     -0.451489 
 C1278  C    -0.307521     -0.321067     -0.499489 
 C1279  C    -0.466235      0.318542      0.354281 
 C1280  C    -0.480569     -0.331920     -0.312078 
 C1281  C     0.315160     -0.402190     -0.271193 
 C1282  C    -0.286561      0.389934      0.331318 
 C1283  C    -0.275520      0.289509     -0.367204 
 C1284  C     0.309349     -0.339504      0.461332 
 C1285  C    -0.397298     -0.284346      0.330767 
 C1286  C     0.391841      0.285748     -0.247582 
 H1287  H     0.344298     -0.388408     -0.365296 
 H1288  H    -0.294175      0.350843      0.421463 
 H1289  H    -0.371934      0.308897     -0.351755 
 H1290  H     0.396174     -0.340782      0.413620 
 H1291  H    -0.379547     -0.378890      0.356274 
 H1292  H     0.371853      0.380297     -0.270219 
 C1293  C     0.299832     -0.479246      0.382685 
 C1294  C    -0.275355      0.481212     -0.342139 
 C1295  C     0.369757      0.285111     -0.450103 
 C1296  C    -0.347521     -0.281426     -0.482328 
 C1297  C    -0.465287      0.356445      0.309045 
 C1298  C    -0.481096     -0.369037     -0.266253 
 C1299  C     0.359540     -0.406027     -0.310625 
 C1300  C    -0.319205      0.385763      0.380553 
 C1301  C    -0.319761      0.329069     -0.372066 
 C1302  C     0.339260     -0.324160      0.412352 
 C1303  C    -0.402001     -0.326302      0.372719 
 C1304  C     0.394313      0.328537     -0.288787 
 C1305  C     0.330081     -0.417490     -0.215636 
 C1306  C    -0.310162      0.425112      0.289776 
 C1307  C    -0.222014      0.309212     -0.384527 
 C1308  C     0.251594     -0.326446      0.457909 
 C1309  C    -0.417808     -0.230718      0.346630 
 C1310  C     0.408412      0.232018     -0.266979 
 C1311  C     0.327349     -0.462217      0.288317 
 C1312  C    -0.309820      0.461250     -0.250039 
 C1313  C     0.276501      0.315719     -0.433187 
 C1314  C    -0.255001     -0.297047      0.486680 
 C1315  C    -0.445584      0.264225      0.341635 
 C1316  C     0.498024     -0.277661     -0.300241 
 O1317  O    -0.486520      0.496284     -0.478485 
 O1318  O     0.320479     -0.499082      0.430105 
 O1319  O    -0.295684      0.494189     -0.392046 
 O1320  O     0.417239      0.303574     -0.471762 
 O1321  O    -0.396210     -0.307379     -0.477740 
 O1322  O    -0.488007      0.403321      0.327636 
 O1323  O    -0.458290     -0.416528     -0.283502 
 O1324  O    -0.370718      0.470862      0.480178 
 O1325  O     0.476762     -0.385850      0.498227 
 O1326  O     0.492822      0.458256     -0.361037 
 O1327  O    -0.369701     -0.472617     -0.453155 
 O1328  O    -0.454398     -0.387208     -0.447997 
 O1329  O    -0.451328     -0.474721     -0.363947 
 O1330  O     0.397501     -0.477710      0.490529 
 O1331  O     0.477538      0.381565     -0.451708 
 O1332  O    -0.466796      0.461305      0.405953 
 O1333  O     0.396838      0.470549     -0.439007 
 O1334  O    -0.452240      0.378063      0.496346 
 O1335  O     0.482782     -0.467205      0.405564 
loop_  
_geom_bond_atom_site_label_1  
_geom_bond_atom_site_label_2  
Zn0   O148 
Zn0   O158 
Zn0   O159 
Zn0   O160 
Zn1   O148 
Zn1   O155 
Zn1   O163 
Zn1   O165 
Zn2   O148 
Zn2   O156 
Zn2   O161 
Zn2   O166 
Zn3   O148 
Zn3   O157 
Zn3   O162 
Zn3   O164 
H4   C88 
H5   C89 
H6   C90 
H7   C91 
H8   C92 
H9   C93 
H10   C106 
H11   C107 
H12   C108 
H13   C109 
H14   C110 
H15   C111 
H16   C106 
H17   C107 
H18   C108 
H19   C109 
H20   C110 
H21   C111 
H22   C112 
H23   C113 
H24   C114 
H25   C115 
H26   C116 
H27   C117 
H28   C112 
H29   C113 
H30   C114 
H31   C115 
H32   C116 
H33   C117 
H34   C124 
H35   C125 
H36   C126 
H37   C127 
H38   C128 
H39   C129 
H40   C124 
H41   C125 
H42   C126 
H43   C127 
H44   C128 
H45   C129 
H46   C130 
H47   C131 
H48   C132 
H49   C133 
H50   C134 
H51   C135 
H52   C130 
H53   C131 
H54   C132 
H55   C133 
H56   C134 
H57   C135 
H58   C810 
H59   C811 
H60   C311 
H61   C312 
H62   C480 
H63   C481 
H64   C142 
H65   C143 
H66   C144 
H67   C145 
H68   C146 
H69   C147 
H70   C136 
H71   C137 
H72   C138 
H73   C139 
H74   C140 
H75   C141 
H76   C804 
H77   C805 
H78   C305 
H79   C306 
H80   C474 
H81   C475 
C82   C88 
C82   C94 
C82   C100 
C83   C89 
C83   C95 
C83   C101 
C84   C90 
C84   C96 
C84   C102 
C85   C91 
C85   C97 
C85   C103 
C86   C92 
C86   C98 
C86   C104 
C87   C93 
C87   C99 
C87   C105 
C88   C262 
C89   C261 
C90   C431 
C91   C430 
C92   C767 
C93   C766 
C94   O149 
C94   C256 
C95   O150 
C95   C255 
C96   O151 
C96   C425 
C97   O152 
C97   C424 
C98   O153 
C98   C761 
C99   O154 
C99   C760 
C100   O155 
C100   O158 
C101   O161 
C101   O164 
C102   O156 
C102   O159 
C103   O162 
C103   O165 
C104   O157 
C104   O160 
C105   O163 
C105   O166 
C106   C124 
C106   C142 
C107   C125 
C107   C143 
C108   C126 
C108   C144 
C109   C127 
C109   C145 
C110   C128 
C110   C146 
C111   C129 
C111   C147 
C112   C130 
C112   C136 
C113   C131 
C113   C137 
C114   C132 
C114   C138 
C115   C133 
C115   C139 
C116   C134 
C116   C140 
C117   C135 
C117   C141 
H118   C130 
H119   C131 
H120   C132 
H121   C133 
H122   C134 
H123   C135 
C124   O149 
C125   O150 
C126   O151 
C127   O152 
C128   O153 
C129   O154 
C136   H744 
C136   C810 
C137   H745 
C137   C811 
C138   H245 
C138   C311 
C139   H246 
C139   C312 
C140   H414 
C140   C480 
C141   H415 
C141   C481 
C142   H726 
C142   C804 
C143   H727 
C143   C805 
C144   H227 
C144   C305 
C145   H228 
C145   C306 
C146   H396 
C146   C474 
C147   H397 
C147   C475 
Zn167   O315 
Zn167   O325 
Zn167   O326 
Zn167   O327 
Zn168   O315 
Zn168   O322 
Zn168   O330 
Zn168   O332 
Zn169   O315 
Zn169   O323 
Zn169   O328 
Zn169   O333 
Zn170   O315 
Zn170   O324 
Zn170   O329 
Zn170   O331 
H171   C255 
H172   C256 
H173   C257 
H174   C258 
H175   C259 
H176   C260 
H177   C273 
H178   C274 
H179   C275 
H180   C276 
H181   C277 
H182   C278 
H183   C273 
H184   C274 
H185   C275 
H186   C276 
H187   C277 
H188   C278 
H189   C279 
H190   C280 
H191   C281 
H192   C282 
H193   C283 
H194   C284 
H195   C279 
H196   C280 
H197   C281 
H198   C282 
H199   C283 
H200   C284 
H201   C291 
H202   C292 
H203   C293 
H204   C294 
H205   C295 
H206   C296 
H207   C291 
H208   C292 
H209   C293 
H210   C294 
H211   C295 
H212   C296 
H213   C297 
H214   C298 
H215   C299 
H216   C300 
H217   C301 
H218   C302 
H219   C297 
H220   C298 
H221   C299 
H222   C300 
H223   C301 
H224   C302 
H225   C977 
H226   C978 
H229   C647 
H230   C648 
H231   C309 
H232   C310 
H233   C311 
H234   C312 
H235   C313 
H236   C314 
H237   C303 
H238   C304 
H239   C305 
H240   C306 
H241   C307 
H242   C308 
H243   C971 
H244   C972 
H247   C641 
H248   C642 
C249   C255 
C249   C261 
C249   C268 
C250   C256 
C250   C262 
C250   C267 
C251   C257 
C251   C263 
C251   C270 
C252   C258 
C252   C264 
C252   C269 
C253   C259 
C253   C265 
C253   C272 
C254   C260 
C254   C266 
C254   C271 
C257   C598 
C258   C597 
C259   C934 
C260   C933 
C261   O316 
C262   O317 
C263   O318 
C263   C592 
C264   O319 
C264   C591 
C265   O320 
C265   C928 
C266   O321 
C266   C927 
C267   O322 
C267   O325 
C268   O328 
C268   O331 
C269   O323 
C269   O326 
C270   O329 
C270   O332 
C271   O324 
C271   O327 
C272   O330 
C272   O333 
C273   C291 
C273   C309 
C274   C292 
C274   C310 
C275   C293 
C275   C311 
C276   C294 
C276   C312 
C277   C295 
C277   C313 
C278   C296 
C278   C314 
C279   C297 
C279   C303 
C280   C298 
C280   C304 
C281   C299 
C281   C305 
C282   C300 
C282   C306 
C283   C301 
C283   C307 
C284   C302 
C284   C308 
H285   C297 
H286   C298 
H287   C299 
H288   C300 
H289   C301 
H290   C302 
C291   O316 
C292   O317 
C293   O318 
C294   O319 
C295   O320 
C296   O321 
C303   H911 
C303   C977 
C304   H912 
C304   C978 
C307   H581 
C307   C647 
C308   H582 
C308   C648 
C309   H893 
C309   C971 
C310   H894 
C310   C972 
C313   H563 
C313   C641 
C314   H564 
C314   C642 
Zn334   O482 
Zn334   O492 
Zn334   O493 
Zn334   O494 
Zn335   O482 
Zn335   O489 
Zn335   O497 
Zn335   O499 
Zn336   O482 
Zn336   O490 
Zn336   O495 
Zn336   O500 
Zn337   O482 
Zn337   O491 
Zn337   O496 
Zn337   O498 
H338   C422 
H339   C423 
H340   C424 
H341   C425 
H342   C426 
H343   C427 
H344   C440 
H345   C441 
H346   C442 
H347   C443 
H348   C444 
H349   C445 
H350   C440 
H351   C441 
H352   C442 
H353   C443 
H354   C444 
H355   C445 
H356   C446 
H357   C447 
H358   C448 
H359   C449 
H360   C450 
H361   C451 
H362   C446 
H363   C447 
H364   C448 
H365   C449 
H366   C450 
H367   C451 
H368   C458 
H369   C459 
H370   C460 
H371   C461 
H372   C462 
H373   C463 
H374   C458 
H375   C459 
H376   C460 
H377   C461 
H378   C462 
H379   C463 
H380   C464 
H381   C465 
H382   C466 
H383   C467 
H384   C468 
H385   C469 
H386   C464 
H387   C465 
H388   C466 
H389   C467 
H390   C468 
H391   C469 
H392   C1144 
H393   C1145 
H394   C645 
H395   C646 
H398   C476 
H399   C477 
H400   C478 
H401   C479 
H402   C480 
H403   C481 
H404   C470 
H405   C471 
H406   C472 
H407   C473 
H408   C474 
H409   C475 
H410   C1138 
H411   C1139 
H412   C639 
H413   C640 
C416   C422 
C416   C428 
C416   C435 
C417   C423 
C417   C429 
C417   C434 
C418   C424 
C418   C430 
C418   C437 
C419   C425 
C419   C431 
C419   C436 
C420   C426 
C420   C432 
C420   C439 
C421   C427 
C421   C433 
C421   C438 
C422   C596 
C423   C595 
C426   C1101 
C427   C1100 
C428   O483 
C428   C590 
C429   O484 
C429   C589 
C430   O485 
C431   O486 
C432   O487 
C432   C1095 
C433   O488 
C433   C1094 
C434   O489 
C434   O492 
C435   O495 
C435   O498 
C436   O490 
C436   O493 
C437   O496 
C437   O499 
C438   O491 
C438   O494 
C439   O497 
C439   O500 
C440   C458 
C440   C476 
C441   C459 
C441   C477 
C442   C460 
C442   C478 
C443   C461 
C443   C479 
C444   C462 
C444   C480 
C445   C463 
C445   C481 
C446   C464 
C446   C470 
C447   C465 
C447   C471 
C448   C466 
C448   C472 
C449   C467 
C449   C473 
C450   C468 
C450   C474 
C451   C469 
C451   C475 
H452   C464 
H453   C465 
H454   C466 
H455   C467 
H456   C468 
H457   C469 
C458   O483 
C459   O484 
C460   O485 
C461   O486 
C462   O487 
C463   O488 
C470   H1078 
C470   C1144 
C471   H1079 
C471   C1145 
C472   H579 
C472   C645 
C473   H580 
C473   C646 
C476   H1060 
C476   C1138 
C477   H1061 
C477   C1139 
C478   H561 
C478   C639 
C479   H562 
C479   C640 
Zn501   O649 
Zn501   O659 
Zn501   O660 
Zn501   O661 
Zn502   O649 
Zn502   O656 
Zn502   O664 
Zn502   O666 
Zn503   O649 
Zn503   O657 
Zn503   O662 
Zn503   O667 
Zn504   O649 
Zn504   O658 
Zn504   O663 
Zn504   O665 
H505   C589 
H506   C590 
H507   C591 
H508   C592 
H509   C593 
H510   C594 
H511   C607 
H512   C608 
H513   C609 
H514   C610 
H515   C611 
H516   C612 
H517   C607 
H518   C608 
H519   C609 
H520   C610 
H521   C611 
H522   C612 
H523   C613 
H524   C614 
H525   C615 
H526   C616 
H527   C617 
H528   C618 
H529   C613 
H530   C614 
H531   C615 
H532   C616 
H533   C617 
H534   C618 
H535   C625 
H536   C626 
H537   C627 
H538   C628 
H539   C629 
H540   C630 
H541   C625 
H542   C626 
H543   C627 
H544   C628 
H545   C629 
H546   C630 
H547   C631 
H548   C632 
H549   C633 
H550   C634 
H551   C635 
H552   C636 
H553   C631 
H554   C632 
H555   C633 
H556   C634 
H557   C635 
H558   C636 
H559   C1311 
H560   C1312 
H565   C643 
H566   C644 
H567   C645 
H568   C646 
H569   C647 
H570   C648 
H571   C637 
H572   C638 
H573   C639 
H574   C640 
H575   C641 
H576   C642 
H577   C1305 
H578   C1306 
C583   C589 
C583   C595 
C583   C601 
C584   C590 
C584   C596 
C584   C602 
C585   C591 
C585   C597 
C585   C603 
C586   C592 
C586   C598 
C586   C604 
C587   C593 
C587   C599 
C587   C605 
C588   C594 
C588   C600 
C588   C606 
C593   C1268 
C594   C1267 
C595   O650 
C596   O651 
C597   O652 
C598   O653 
C599   O654 
C599   C1262 
C600   O655 
C600   C1261 
C601   O656 
C601   O659 
C602   O662 
C602   O665 
C603   O657 
C603   O660 
C604   O663 
C604   O666 
C605   O658 
C605   O661 
C606   O664 
C606   O667 
C607   C625 
C607   C643 
C608   C626 
C608   C644 
C609   C627 
C609   C645 
C610   C628 
C610   C646 
C611   C629 
C611   C647 
C612   C630 
C612   C648 
C613   C631 
C613   C637 
C614   C632 
C614   C638 
C615   C633 
C615   C639 
C616   C634 
C616   C640 
C617   C635 
C617   C641 
C618   C636 
C618   C642 
H619   C631 
H620   C632 
H621   C633 
H622   C634 
H623   C635 
H624   C636 
C625   O650 
C626   O651 
C627   O652 
C628   O653 
C629   O654 
C630   O655 
C637   H1245 
C637   C1311 
C638   H1246 
C638   C1312 
C643   H1227 
C643   C1305 
C644   H1228 
C644   C1306 
Zn668   O816 
Zn668   O826 
Zn668   O827 
Zn668   O828 
Zn669   O816 
Zn669   O823 
Zn669   O831 
Zn669   O833 
Zn670   O816 
Zn670   O824 
Zn670   O829 
Zn670   O834 
Zn671   O816 
Zn671   O825 
Zn671   O830 
Zn671   O832 
H672   C756 
H673   C757 
H674   C758 
H675   C759 
H676   C760 
H677   C761 
H678   C774 
H679   C775 
H680   C776 
H681   C777 
H682   C778 
H683   C779 
H684   C774 
H685   C775 
H686   C776 
H687   C777 
H688   C778 
H689   C779 
H690   C780 
H691   C781 
H692   C782 
H693   C783 
H694   C784 
H695   C785 
H696   C780 
H697   C781 
H698   C782 
H699   C783 
H700   C784 
H701   C785 
H702   C792 
H703   C793 
H704   C794 
H705   C795 
H706   C796 
H707   C797 
H708   C792 
H709   C793 
H710   C794 
H711   C795 
H712   C796 
H713   C797 
H714   C798 
H715   C799 
H716   C800 
H717   C801 
H718   C802 
H719   C803 
H720   C798 
H721   C799 
H722   C800 
H723   C801 
H724   C802 
H725   C803 
H728   C979 
H729   C980 
H730   C1148 
H731   C1149 
H732   C810 
H733   C811 
H734   C812 
H735   C813 
H736   C814 
H737   C815 
H738   C804 
H739   C805 
H740   C806 
H741   C807 
H742   C808 
H743   C809 
H746   C973 
H747   C974 
H748   C1142 
H749   C1143 
C750   C756 
C750   C762 
C750   C769 
C751   C757 
C751   C763 
C751   C768 
C752   C758 
C752   C764 
C752   C771 
C753   C759 
C753   C765 
C753   C770 
C754   C760 
C754   C766 
C754   C773 
C755   C761 
C755   C767 
C755   C772 
C756   C930 
C757   C929 
C758   C1099 
C759   C1098 
C762   O817 
C762   C924 
C763   O818 
C763   C923 
C764   O819 
C764   C1093 
C765   O820 
C765   C1092 
C766   O821 
C767   O822 
C768   O823 
C768   O826 
C769   O829 
C769   O832 
C770   O824 
C770   O827 
C771   O830 
C771   O833 
C772   O825 
C772   O828 
C773   O831 
C773   O834 
C774   C792 
C774   C810 
C775   C793 
C775   C811 
C776   C794 
C776   C812 
C777   C795 
C777   C813 
C778   C796 
C778   C814 
C779   C797 
C779   C815 
C780   C798 
C780   C804 
C781   C799 
C781   C805 
C782   C800 
C782   C806 
C783   C801 
C783   C807 
C784   C802 
C784   C808 
C785   C803 
C785   C809 
H786   C798 
H787   C799 
H788   C800 
H789   C801 
H790   C802 
H791   C803 
C792   O817 
C793   O818 
C794   O819 
C795   O820 
C796   O821 
C797   O822 
C806   H913 
C806   C979 
C807   H914 
C807   C980 
C808   H1082 
C808   C1148 
C809   H1083 
C809   C1149 
C812   H895 
C812   C973 
C813   H896 
C813   C974 
C814   H1064 
C814   C1142 
C815   H1065 
C815   C1143 
Zn835   O983 
Zn835   O993 
Zn835   O994 
Zn835   O995 
Zn836   O983 
Zn836   O990 
Zn836   O998 
Zn836   O1000 
Zn837   O983 
Zn837   O991 
Zn837   O996 
Zn837   O1001 
Zn838   O983 
Zn838   O992 
Zn838   O997 
Zn838   O999 
H839   C923 
H840   C924 
H841   C925 
H842   C926 
H843   C927 
H844   C928 
H845   C941 
H846   C942 
H847   C943 
H848   C944 
H849   C945 
H850   C946 
H851   C941 
H852   C942 
H853   C943 
H854   C944 
H855   C945 
H856   C946 
H857   C947 
H858   C948 
H859   C949 
H860   C950 
H861   C951 
H862   C952 
H863   C947 
H864   C948 
H865   C949 
H866   C950 
H867   C951 
H868   C952 
H869   C959 
H870   C960 
H871   C961 
H872   C962 
H873   C963 
H874   C964 
H875   C959 
H876   C960 
H877   C961 
H878   C962 
H879   C963 
H880   C964 
H881   C965 
H882   C966 
H883   C967 
H884   C968 
H885   C969 
H886   C970 
H887   C965 
H888   C966 
H889   C967 
H890   C968 
H891   C969 
H892   C970 
H897   C1315 
H898   C1316 
H899   C977 
H900   C978 
H901   C979 
H902   C980 
H903   C981 
H904   C982 
H905   C971 
H906   C972 
H907   C973 
H908   C974 
H909   C975 
H910   C976 
H915   C1309 
H916   C1310 
C917   C923 
C917   C929 
C917   C935 
C918   C924 
C918   C930 
C918   C936 
C919   C925 
C919   C931 
C919   C937 
C920   C926 
C920   C932 
C920   C938 
C921   C927 
C921   C933 
C921   C939 
C922   C928 
C922   C934 
C922   C940 
C925   C1266 
C926   C1265 
C929   O984 
C930   O985 
C931   O986 
C931   C1260 
C932   O987 
C932   C1259 
C933   O988 
C934   O989 
C935   O990 
C935   O993 
C936   O996 
C936   O999 
C937   O991 
C937   O994 
C938   O997 
C938   O1000 
C939   O992 
C939   O995 
C940   O998 
C940   O1001 
C941   C959 
C941   C977 
C942   C960 
C942   C978 
C943   C961 
C943   C979 
C944   C962 
C944   C980 
C945   C963 
C945   C981 
C946   C964 
C946   C982 
C947   C965 
C947   C971 
C948   C966 
C948   C972 
C949   C967 
C949   C973 
C950   C968 
C950   C974 
C951   C969 
C951   C975 
C952   C970 
C952   C976 
H953   C965 
H954   C966 
H955   C967 
H956   C968 
H957   C969 
H958   C970 
C959   O984 
C960   O985 
C961   O986 
C962   O987 
C963   O988 
C964   O989 
C975   H1249 
C975   C1315 
C976   H1250 
C976   C1316 
C981   H1231 
C981   C1309 
C982   H1232 
C982   C1310 
Zn1002   O1150 
Zn1002   O1160 
Zn1002   O1161 
Zn1002   O1162 
Zn1003   O1150 
Zn1003   O1157 
Zn1003   O1165 
Zn1003   O1167 
Zn1004   O1150 
Zn1004   O1158 
Zn1004   O1163 
Zn1004   O1168 
Zn1005   O1150 
Zn1005   O1159 
Zn1005   O1164 
Zn1005   O1166 
H1006   C1090 
H1007   C1091 
H1008   C1092 
H1009   C1093 
H1010   C1094 
H1011   C1095 
H1012   C1108 
H1013   C1109 
H1014   C1110 
H1015   C1111 
H1016   C1112 
H1017   C1113 
H1018   C1108 
H1019   C1109 
H1020   C1110 
H1021   C1111 
H1022   C1112 
H1023   C1113 
H1024   C1114 
H1025   C1115 
H1026   C1116 
H1027   C1117 
H1028   C1118 
H1029   C1119 
H1030   C1114 
H1031   C1115 
H1032   C1116 
H1033   C1117 
H1034   C1118 
H1035   C1119 
H1036   C1126 
H1037   C1127 
H1038   C1128 
H1039   C1129 
H1040   C1130 
H1041   C1131 
H1042   C1126 
H1043   C1127 
H1044   C1128 
H1045   C1129 
H1046   C1130 
H1047   C1131 
H1048   C1132 
H1049   C1133 
H1050   C1134 
H1051   C1135 
H1052   C1136 
H1053   C1137 
H1054   C1132 
H1055   C1133 
H1056   C1134 
H1057   C1135 
H1058   C1136 
H1059   C1137 
H1062   C1313 
H1063   C1314 
H1066   C1144 
H1067   C1145 
H1068   C1146 
H1069   C1147 
H1070   C1148 
H1071   C1149 
H1072   C1138 
H1073   C1139 
H1074   C1140 
H1075   C1141 
H1076   C1142 
H1077   C1143 
H1080   C1307 
H1081   C1308 
C1084   C1090 
C1084   C1096 
C1084   C1102 
C1085   C1091 
C1085   C1097 
C1085   C1103 
C1086   C1092 
C1086   C1098 
C1086   C1104 
C1087   C1093 
C1087   C1099 
C1087   C1105 
C1088   C1094 
C1088   C1100 
C1088   C1106 
C1089   C1095 
C1089   C1101 
C1089   C1107 
C1090   C1264 
C1091   C1263 
C1096   O1151 
C1096   C1258 
C1097   O1152 
C1097   C1257 
C1098   O1153 
C1099   O1154 
C1100   O1155 
C1101   O1156 
C1102   O1157 
C1102   O1160 
C1103   O1163 
C1103   O1166 
C1104   O1158 
C1104   O1161 
C1105   O1164 
C1105   O1167 
C1106   O1159 
C1106   O1162 
C1107   O1165 
C1107   O1168 
C1108   C1126 
C1108   C1144 
C1109   C1127 
C1109   C1145 
C1110   C1128 
C1110   C1146 
C1111   C1129 
C1111   C1147 
C1112   C1130 
C1112   C1148 
C1113   C1131 
C1113   C1149 
C1114   C1132 
C1114   C1138 
C1115   C1133 
C1115   C1139 
C1116   C1134 
C1116   C1140 
C1117   C1135 
C1117   C1141 
C1118   C1136 
C1118   C1142 
C1119   C1137 
C1119   C1143 
H1120   C1132 
H1121   C1133 
H1122   C1134 
H1123   C1135 
H1124   C1136 
H1125   C1137 
C1126   O1151 
C1127   O1152 
C1128   O1153 
C1129   O1154 
C1130   O1155 
C1131   O1156 
C1140   H1247 
C1140   C1313 
C1141   H1248 
C1141   C1314 
C1146   H1229 
C1146   C1307 
C1147   H1230 
C1147   C1308 
Zn1169   O1317 
Zn1169   O1327 
Zn1169   O1328 
Zn1169   O1329 
Zn1170   O1317 
Zn1170   O1324 
Zn1170   O1332 
Zn1170   O1334 
Zn1171   O1317 
Zn1171   O1325 
Zn1171   O1330 
Zn1171   O1335 
Zn1172   O1317 
Zn1172   O1326 
Zn1172   O1331 
Zn1172   O1333 
H1173   C1257 
H1174   C1258 
H1175   C1259 
H1176   C1260 
H1177   C1261 
H1178   C1262 
H1179   C1275 
H1180   C1276 
H1181   C1277 
H1182   C1278 
H1183   C1279 
H1184   C1280 
H1185   C1275 
H1186   C1276 
H1187   C1277 
H1188   C1278 
H1189   C1279 
H1190   C1280 
H1191   C1281 
H1192   C1282 
H1193   C1283 
H1194   C1284 
H1195   C1285 
H1196   C1286 
H1197   C1281 
H1198   C1282 
H1199   C1283 
H1200   C1284 
H1201   C1285 
H1202   C1286 
H1203   C1293 
H1204   C1294 
H1205   C1295 
H1206   C1296 
H1207   C1297 
H1208   C1298 
H1209   C1293 
H1210   C1294 
H1211   C1295 
H1212   C1296 
H1213   C1297 
H1214   C1298 
H1215   C1299 
H1216   C1300 
H1217   C1301 
H1218   C1302 
H1219   C1303 
H1220   C1304 
H1221   C1299 
H1222   C1300 
H1223   C1301 
H1224   C1302 
H1225   C1303 
H1226   C1304 
H1233   C1311 
H1234   C1312 
H1235   C1313 
H1236   C1314 
H1237   C1315 
H1238   C1316 
H1239   C1305 
H1240   C1306 
H1241   C1307 
H1242   C1308 
H1243   C1309 
H1244   C1310 
C1251   C1257 
C1251   C1263 
C1251   C1270 
C1252   C1258 
C1252   C1264 
C1252   C1269 
C1253   C1259 
C1253   C1265 
C1253   C1272 
C1254   C1260 
C1254   C1266 
C1254   C1271 
C1255   C1261 
C1255   C1267 
C1255   C1274 
C1256   C1262 
C1256   C1268 
C1256   C1273 
C1263   O1318 
C1264   O1319 
C1265   O1320 
C1266   O1321 
C1267   O1322 
C1268   O1323 
C1269   O1324 
C1269   O1327 
C1270   O1330 
C1270   O1333 
C1271   O1325 
C1271   O1328 
C1272   O1331 
C1272   O1334 
C1273   O1326 
C1273   O1329 
C1274   O1332 
C1274   O1335 
C1275   C1293 
C1275   C1311 
C1276   C1294 
C1276   C1312 
C1277   C1295 
C1277   C1313 
C1278   C1296 
C1278   C1314 
C1279   C1297 
C1279   C1315 
C1280   C1298 
C1280   C1316 
C1281   C1299 
C1281   C1305 
C1282   C1300 
C1282   C1306 
C1283   C1301 
C1283   C1307 
C1284   C1302 
C1284   C1308 
C1285   C1303 
C1285   C1309 
C1286   C1304 
C1286   C1310 
H1287   C1299 
H1288   C1300 
H1289   C1301 
H1290   C1302 
H1291   C1303 
H1292   C1304 
C1293   O1318 
C1294   O1319 
C1295   O1320 
C1296   O1321 
C1297   O1322 
C1298   O1323 
  
#END  
