data_
_symmetry_cell_setting           triclinic 
_symmetry_space_group_name_H-M   'P 1' 
_symmetry_Int_Tables_number      1 
loop_ 
_symmetry_equiv_pos_site_id 
_symmetry_equiv_pos_as_xyz 
1 x,y,z 
_cell_length_a             25.851656        
_cell_length_b             25.851657        
_cell_length_c             25.851657        
_cell_angle_alpha          90.000000        
_cell_angle_beta           90.000000        
_cell_angle_gamma          90.000000        
loop_  
_atom_site_label   
_atom_site_type_symbol  
_atom_site_fract_x  
_atom_site_fract_y  
_atom_site_fract_z 
 Zn0  Zn    -0.034343     -0.040923     -0.011097 
 Zn1  Zn    -0.031413      0.046772      0.074401 
 Zn2  Zn     0.054241     -0.041948      0.072163 
 Zn3  Zn     0.053162      0.044655     -0.014542 
 H4  H    -0.193936      0.003328      0.118797 
 H5  H     0.213824      0.018823     -0.051709 
 H6  H     0.095087     -0.199419      0.023676 
 H7  H    -0.067724      0.207163      0.032176 
 H8  H     0.019673      0.087213     -0.172269 
 H9  H     0.031114     -0.078056      0.232062 
 H10  H    -0.124262      0.044598     -0.125852 
 H11  H     0.148993     -0.047481      0.195045 
 H12  H    -0.153682     -0.159387      0.085440 
 H13  H     0.177591      0.136743     -0.020254 
 H14  H     0.026433     -0.152246     -0.103657 
 H15  H    -0.032046      0.163877      0.165139 
 H16  H    -0.136789     -0.019475     -0.144181 
 H17  H     0.163489      0.016961      0.211086 
 H18  H    -0.173657     -0.150793      0.020984 
 H19  H     0.194961      0.153714      0.043228 
 H20  H    -0.035503     -0.173231     -0.121845 
 H21  H     0.030259      0.183776      0.183467 
 H22  H    -0.228346      0.094706      0.210460 
 H23  H     0.241415     -0.074947     -0.163926 
 H24  H     0.210026     -0.119929      0.083990 
 H25  H    -0.190662      0.244171     -0.058621 
 H26  H     0.108212      0.201915     -0.233926 
 H27  H    -0.058397     -0.204066      0.256324 
 H28  H    -0.194937      0.147766      0.236938 
 H29  H     0.223414     -0.139122     -0.177255 
 H30  H     0.197607     -0.180997      0.056688 
 H31  H    -0.203250      0.221721     -0.121486 
 H32  H     0.172061      0.215681     -0.215127 
 H33  H    -0.119701     -0.220800      0.232172 
 H34  H    -0.192299      0.185009      0.148433 
 H35  H     0.195445     -0.152414     -0.084403 
 H36  H     0.108428     -0.179801      0.105834 
 H37  H    -0.108731      0.203039     -0.136525 
 H38  H     0.191008      0.125042     -0.193738 
 H39  H    -0.137397     -0.127229      0.206439 
 H40  H    -0.218323      0.130322      0.117187 
 H41  H     0.211187     -0.088112     -0.068329 
 H42  H     0.125617     -0.118732      0.130327 
 H43  H    -0.092694      0.224179     -0.073859 
 H44  H     0.128518      0.103449     -0.209995 
 H45  H    -0.076431     -0.109092      0.230829 
 H46  H    -0.220794      0.054971     -0.103549 
 H47  H     0.238906     -0.061386      0.162289 
 H48  H    -0.125477     -0.251418      0.062793 
 H49  H     0.146968      0.226726     -0.037836 
 H50  H     0.044764     -0.124674     -0.195338 
 H51  H    -0.050478      0.134319      0.255921 
 H52  H    -0.228692     -0.012079     -0.118310 
 H53  H     0.256481      0.002452      0.182281 
 H54  H    -0.138731     -0.236472     -0.003554 
 H55  H     0.168457      0.246682      0.024804 
 H56  H    -0.017362     -0.147892     -0.214446 
 H57  H     0.011633      0.157035      0.276008 
 H58  H    -0.118255      0.127996      0.181304 
 H59  H     0.131513     -0.118544     -0.151017 
 H60  H     0.186997     -0.219317      0.145047 
 H61  H    -0.166736      0.134164     -0.096967 
 H62  H     0.150758      0.182938     -0.124593 
 H63  H    -0.093623     -0.188343      0.143913 
 H64  H    -0.150291      0.074210      0.154996 
 H65  H     0.150456     -0.055084     -0.135337 
 H66  H     0.203619     -0.159675      0.173483 
 H67  H    -0.151591      0.158220     -0.035246 
 H68  H     0.089336      0.164159     -0.146961 
 H69  H    -0.033122     -0.169658      0.168672 
 H70  H    -0.109562      0.174472      0.097037 
 H71  H     0.103641     -0.138435     -0.055953 
 H72  H     0.099817     -0.213862      0.197410 
 H73  H    -0.069098      0.116046     -0.118751 
 H74  H     0.179253      0.091343     -0.102491 
 H75  H    -0.114194     -0.090767      0.118911 
 H76  H    -0.164249      0.184617      0.056675 
 H77  H     0.146782     -0.121542     -0.005281 
 H78  H     0.057471     -0.161187      0.184489 
 H79  H    -0.023528      0.165795     -0.106529 
 H80  H     0.172013      0.041425     -0.148898 
 H81  H    -0.106217     -0.043089      0.167509 
 H82  H    -0.137687      0.121741      0.063381 
 H83  H     0.116935     -0.072602     -0.042823 
 H84  H     0.114510     -0.150942      0.220969 
 H85  H    -0.055356      0.134710     -0.054327 
 H86  H     0.116764      0.068972     -0.119280 
 H87  H    -0.051618     -0.075402      0.141546 
 H88  H    -0.238502      0.054509      0.298059 
 H89  H     0.140647     -0.021292     -0.215795 
 H90  H     0.291770     -0.120204      0.033721 
 H91  H    -0.232360      0.138923     -0.000387 
 H92  H     0.055218      0.246119     -0.126871 
 H93  H     0.007430     -0.247631      0.158683 
 H94  H    -0.196599      0.012794     -0.214602 
 H95  H     0.225379     -0.011665      0.278856 
 H96  H    -0.214866     -0.236977      0.091832 
 H97  H     0.263621      0.212698      0.010952 
 H98  H     0.003270     -0.240823     -0.179400 
 H99  H    -0.006247      0.251971      0.240569 
 H100  H    -0.159416      0.034681      0.246067 
 H101  H     0.162971     -0.109695     -0.246089 
 H102  H     0.288732     -0.155141      0.128050 
 H103  H    -0.265500      0.156694     -0.088155 
 H104  H     0.141631      0.278636     -0.149581 
 H105  H    -0.080117     -0.284581      0.171571 
 H106  H    -0.213838      0.102875     -0.175613 
 H107  H     0.248954     -0.098972      0.237207 
 H108  H    -0.240660     -0.149716      0.125702 
 H109  H     0.220958      0.232001     -0.077675 
 H110  H     0.091402     -0.197611     -0.193513 
 H111  H    -0.094338      0.207061      0.257569 
 C112  C    -0.185717      0.003538      0.035234 
 C113  C     0.206781      0.007951      0.030960 
 C114  C     0.011575     -0.194857      0.025974 
 C115  C     0.015456      0.199190      0.028716 
 C116  C     0.000665      0.005591     -0.165680 
 C117  C     0.020632      0.004778      0.226310 
 C118  C    -0.213832      0.003205      0.081520 
 C119  C     0.234337      0.011218     -0.015530 
 C120  C     0.058789     -0.220982      0.021936 
 C121  C    -0.030883      0.227129      0.027120 
 C122  C     0.011218      0.051259     -0.192848 
 C123  C     0.022761     -0.042275      0.253011 
 C124  C    -0.211078      0.003729     -0.012845 
 C125  C     0.232775     -0.001929      0.077631 
 C126  C    -0.035323     -0.222066      0.023733 
 C127  C     0.062758      0.224430      0.020034 
 C128  C    -0.008429     -0.040792     -0.192421 
 C129  C     0.010204      0.050901      0.252942 
 C130  C    -0.128079      0.000953      0.037490 
 C131  C     0.149098      0.004244      0.027879 
 C132  C     0.012214     -0.137116      0.026898 
 C133  C     0.012660      0.141322      0.029748 
 C134  C     0.002600      0.006429     -0.107944 
 C135  C     0.017561      0.002897      0.168513 
 C136  C    -0.154303      0.019391     -0.142508 
 C137  C     0.180371     -0.022130      0.208894 
 C138  C    -0.168497     -0.180217      0.051435 
 C139  C     0.192639      0.168846      0.003435 
 C140  C     0.004551     -0.169365     -0.135976 
 C141  C    -0.009784      0.180173      0.197665 
 C142  C    -0.189458      0.108782      0.220628 
 C143  C     0.208822     -0.099094     -0.176861 
 C144  C     0.214632     -0.161780      0.090614 
 C145  C    -0.200498      0.209207     -0.080850 
 C146  C     0.132141      0.212968     -0.200472 
 C147  C    -0.078720     -0.216938      0.221179 
 C148  C    -0.181843      0.147872      0.130482 
 C149  C     0.179684     -0.112876     -0.082759 
 C150  C     0.127808     -0.160502      0.138326 
 C151  C    -0.104084      0.189819     -0.096300 
 C152  C     0.152129      0.118419     -0.177836 
 C153  C    -0.096471     -0.122394      0.195672 
 C154  C    -0.200663      0.017504     -0.105916 
 C155  C     0.224150     -0.022038      0.169260 
 C156  C    -0.128497     -0.219858      0.034273 
 C157  C     0.154224      0.213605      0.002048 
 C158  C     0.005077     -0.132247     -0.181801 
 C159  C    -0.010731      0.142271      0.242900 
 C160  C    -0.156813      0.112953      0.171392 
 C161  C     0.164441     -0.095257     -0.137430 
 C162  C     0.184722     -0.177124      0.139594 
 C163  C    -0.156257      0.169647     -0.075988 
 C164  C     0.129669      0.170179     -0.159267 
 C165  C    -0.074017     -0.174982      0.179226 
 C166  C    -0.165856      0.073603      0.262170 
 C167  C     0.193901     -0.083795     -0.232419 
 C168  C     0.272388     -0.174839      0.094037 
 C169  C    -0.254004      0.189504     -0.063528 
 C170  C     0.115570      0.266698     -0.181075 
 C171  C    -0.058210     -0.270567      0.205316 
 C172  C    -0.166198      0.037466     -0.198015 
 C173  C     0.196633     -0.039068      0.263629 
 C174  C    -0.221017     -0.204237      0.065266 
 C175  C     0.247481      0.182996     -0.014867 
 C176  C     0.025958     -0.223623     -0.147814 
 C177  C    -0.030435      0.234490      0.210310 
 C178  C    -0.146436      0.157734      0.084206 
 C179  C     0.134339     -0.111347     -0.044629 
 C180  C     0.098287     -0.172418      0.188184 
 C181  C    -0.060673      0.149427     -0.093857 
 C182  C     0.155269      0.077794     -0.134828 
 C183  C    -0.091982     -0.080703      0.153688 
 O184  O     0.010502      0.002432      0.030431 
 O185  O    -0.180334      0.004527     -0.056008 
 O186  O     0.203503     -0.002202      0.121840 
 O187  O    -0.079808     -0.193905      0.029686 
 O188  O     0.106742      0.195142      0.023707 
 O189  O    -0.017728     -0.084756     -0.164553 
 O190  O     0.011989      0.095395      0.224310 
 O191  O    -0.105300      0.027854      0.071768 
 O192  O     0.047220     -0.115435      0.053719 
 O193  O     0.031159      0.040459     -0.087018 
 O194  O    -0.106317     -0.028667      0.005101 
 O195  O    -0.021620     -0.114076     -0.000058 
 O196  O    -0.024690     -0.026564     -0.084108 
 O197  O     0.126480     -0.023574      0.061416 
 O198  O     0.046444      0.117151      0.003654 
 O199  O    -0.009222      0.037411      0.145992 
 O200  O     0.127144      0.028167     -0.009048 
 O201  O    -0.023778      0.120653      0.055600 
 O202  O     0.041200     -0.034079      0.146381 
 Zn203  Zn    -0.446588      0.041392      0.079589 
 Zn204  Zn    -0.445335     -0.043090     -0.008720 
 Zn205  Zn     0.466944      0.042562     -0.006985 
 Zn206  Zn     0.467457     -0.045368      0.078111 
 H207  H     0.306904     -0.017785      0.113474 
 H208  H    -0.285328      0.001811     -0.051817 
 H209  H    -0.412158     -0.201797     -0.009388 
 H210  H     0.428076      0.203703      0.031385 
 H211  H     0.494820      0.081598     -0.167136 
 H212  H     0.488363     -0.083139      0.237839 
 H213  H     0.372711      0.047322     -0.133091 
 H214  H    -0.357511     -0.044479      0.188832 
 H215  H     0.371379     -0.132619      0.086021 
 H216  H    -0.328725      0.129555     -0.011551 
 H217  H    -0.432495     -0.162936     -0.106157 
 H218  H     0.476623      0.152180      0.166704 
 H219  H     0.354765     -0.015934     -0.150391 
 H220  H    -0.347125      0.020413      0.205529 
 H221  H     0.381561     -0.144044      0.019887 
 H222  H    -0.308959      0.142906      0.051999 
 H223  H    -0.495843     -0.183617     -0.119436 
 H224  H    -0.460328      0.172696      0.180943 
 H225  H     0.268822      0.079428      0.231663 
 H226  H    -0.230567     -0.088460     -0.175783 
 H227  H    -0.329162     -0.205865      0.069941 
 H228  H     0.311979      0.258184     -0.064357 
 H229  H    -0.407301      0.193784     -0.218954 
 H230  H     0.412644     -0.213762      0.284968 
 H231  H     0.287840      0.143527      0.243682 
 H232  H    -0.252638     -0.150949     -0.191053 
 H233  H    -0.303563     -0.224202      0.130470 
 H234  H     0.299789      0.237549     -0.127951 
 H235  H    -0.343120      0.207792     -0.201632 
 H236  H     0.349399     -0.228753      0.265262 
 H237  H     0.312053      0.155463      0.149664 
 H238  H    -0.267117     -0.177415     -0.101944 
 H239  H    -0.386692     -0.210851      0.179895 
 H240  H     0.390723      0.220962     -0.146652 
 H241  H    -0.328602      0.113822     -0.176789 
 H242  H     0.329067     -0.135186      0.256090 
 H243  H     0.295147      0.091137      0.135133 
 H244  H    -0.243680     -0.118173     -0.077714 
 H245  H    -0.416539     -0.200883      0.119547 
 H246  H     0.412097      0.239106     -0.084612 
 H247  H    -0.393060      0.098165     -0.192122 
 H248  H     0.392064     -0.115320      0.272084 
 H249  H     0.283364      0.064715     -0.099256 
 H250  H    -0.262800     -0.054708      0.167244 
 H251  H     0.364549     -0.231717      0.099181 
 H252  H    -0.354522      0.223485     -0.023096 
 H253  H    -0.423113     -0.129127     -0.196477 
 H254  H     0.461048      0.131491      0.260592 
 H255  H     0.263294      0.001922     -0.120164 
 H256  H    -0.251583      0.010582      0.187100 
 H257  H     0.383450     -0.238173      0.033341 
 H258  H    -0.333854      0.236034      0.041645 
 H259  H    -0.486141     -0.153049     -0.212034 
 H260  H    -0.475859      0.154844      0.276085 
 H261  H     0.378433      0.122112      0.214003 
 H262  H    -0.339014     -0.128063     -0.148018 
 H263  H    -0.328846     -0.134677      0.164593 
 H264  H     0.337090      0.149135     -0.104326 
 H265  H    -0.361268      0.178358     -0.110371 
 H266  H     0.365342     -0.185121      0.179794 
 H267  H     0.358609      0.058492      0.200020 
 H268  H    -0.310972     -0.069835     -0.126881 
 H269  H    -0.359459     -0.122566      0.104869 
 H270  H     0.354781      0.174270     -0.043679 
 H271  H    -0.425140      0.162930     -0.128113 
 H272  H     0.428156     -0.168120      0.199872 
 H273  H     0.402359      0.140499      0.116901 
 H274  H    -0.352891     -0.161527     -0.057026 
 H275  H    -0.419272     -0.123923      0.210786 
 H276  H     0.428344      0.131328     -0.133369 
 H277  H    -0.341178      0.081656     -0.085845 
 H278  H     0.336383     -0.090329      0.169407 
 H279  H     0.356643      0.123700      0.068665 
 H280  H    -0.300459     -0.164078     -0.013029 
 H281  H    -0.471096     -0.164022      0.190046 
 H282  H     0.476289      0.180192     -0.128422 
 H283  H    -0.357901      0.032733     -0.130842 
 H284  H     0.346908     -0.046489      0.221075 
 H285  H     0.387861      0.074641      0.105017 
 H286  H    -0.327664     -0.103594     -0.030540 
 H287  H    -0.448568     -0.113520      0.149568 
 H288  H     0.451360      0.150705     -0.071878 
 H289  H    -0.407067      0.068322     -0.098975 
 H290  H     0.399977     -0.070675      0.185135 
 H291  H     0.372431      0.026470      0.282327 
 H292  H    -0.341418     -0.031092     -0.207378 
 H293  H    -0.238733     -0.220544      0.030117 
 H294  H     0.272528      0.148812     -0.010358 
 H295  H    -0.458584      0.244524     -0.114065 
 H296  H     0.471088     -0.246390      0.178148 
 H297  H     0.291756      0.018749     -0.215519 
 H298  H    -0.290929     -0.006953      0.279748 
 H299  H     0.293388     -0.185086      0.013288 
 H300  H    -0.240924      0.203842      0.018119 
 H301  H    -0.462882     -0.247762     -0.183823 
 H302  H    -0.494400      0.246591      0.232794 
 H303  H     0.349792      0.114557      0.311242 
 H304  H    -0.322819     -0.115627     -0.245562 
 H305  H    -0.265377     -0.132811      0.064541 
 H306  H     0.239831      0.169678     -0.097212 
 H307  H    -0.372399      0.275458     -0.139923 
 H308  H     0.384217     -0.282061      0.191965 
 H309  H     0.279811      0.108195     -0.172544 
 H310  H    -0.265572     -0.096494      0.247662 
 H311  H     0.276851     -0.216596      0.101136 
 H312  H    -0.282402      0.220324     -0.070984 
 H313  H    -0.376844     -0.200734     -0.204189 
 H314  H     0.416303      0.205675      0.254030 
 C315  C     0.313911     -0.007097      0.030727 
 C316  C    -0.293338      0.002813      0.031652 
 C317  C    -0.484582     -0.197985      0.033441 
 C318  C    -0.488749      0.194029      0.034515 
 C319  C    -0.495047     -0.001475     -0.160651 
 C320  C    -0.493858     -0.001354      0.232072 
 C321  C     0.286404     -0.010104      0.077297 
 C322  C    -0.265231      0.002705     -0.014629 
 C323  C    -0.443862     -0.223333      0.008331 
 C324  C     0.465685      0.223053      0.031244 
 C325  C    -0.498766      0.045323     -0.187787 
 C326  C     0.494625     -0.046963      0.258811 
 C327  C     0.287943      0.003119     -0.015880 
 C328  C    -0.267949      0.002303      0.079646 
 C329  C     0.475729     -0.227533      0.055892 
 C330  C    -0.440126      0.218140      0.032830 
 C331  C    -0.485448     -0.047949     -0.187183 
 C332  C    -0.488106      0.045480      0.258895 
 C333  C    -0.351061      0.004132      0.029469 
 C334  C     0.371717     -0.005474      0.033296 
 C335  C    -0.492945      0.136718      0.039201 
 C336  C    -0.484717     -0.139912      0.034595 
 C337  C    -0.489881     -0.003575      0.174461 
 C338  C    -0.492712      0.000588     -0.102853 
 C339  C     0.339935      0.023905     -0.147117 
 C340  C    -0.328747     -0.018092      0.205970 
 C341  C     0.362160     -0.159748      0.054455 
 C342  C    -0.311899      0.160009      0.013030 
 C343  C    -0.457389     -0.178432     -0.137100 
 C344  C    -0.499918      0.171202      0.196761 
 C345  C     0.302091      0.103376      0.243191 
 C346  C    -0.265679     -0.110900     -0.184613 
 C347  C    -0.310695     -0.190690      0.105154 
 C348  C     0.302978      0.223759     -0.087759 
 C349  C    -0.382888      0.206378     -0.186403 
 C350  C     0.388973     -0.222618      0.250708 
 C351  C     0.327481      0.115802      0.147793 
 C352  C    -0.279087     -0.138183     -0.090445 
 C353  C    -0.397596     -0.180683      0.151870 
 C354  C     0.398460      0.205926     -0.107609 
 C355  C    -0.367869      0.111457     -0.160446 
 C356  C     0.367191     -0.126528      0.239382 
 C357  C     0.296616      0.024969     -0.107028 
 C358  C    -0.280756     -0.016316      0.171653 
 C359  C     0.385085     -0.212488      0.067230 
 C360  C    -0.348732      0.206022      0.015339 
 C361  C    -0.461435     -0.138624     -0.180463 
 C362  C    -0.499639      0.137522      0.245308 
 C363  C     0.344907      0.098774      0.202073 
 C364  C    -0.301908     -0.110062     -0.137557 
 C365  C    -0.348536     -0.153621      0.131981 
 C366  C     0.347948      0.185079     -0.084315 
 C367  C    -0.385353      0.165615     -0.143059 
 C368  C     0.388740     -0.175782      0.214083 
 C369  C     0.318597      0.088501      0.298469 
 C370  C    -0.289818     -0.090848     -0.235106 
 C371  C    -0.258697     -0.165835      0.090631 
 C372  C     0.250235      0.201817     -0.071277 
 C373  C    -0.398928      0.261439     -0.170167 
 C374  C     0.408047     -0.273346      0.226167 
 C375  C     0.323830      0.042807     -0.201239 
 C376  C    -0.319178     -0.033647      0.262554 
 C377  C     0.303389     -0.159383      0.045744 
 C378  C    -0.257145      0.173065     -0.006344 
 C379  C    -0.436900     -0.231679     -0.154209 
 C380  C     0.480668      0.226992      0.204492 
 C381  C     0.370906      0.113560      0.107427 
 C382  C    -0.317082     -0.142015     -0.045224 
 C383  C    -0.436218     -0.143491      0.177079 
 C384  C     0.441004      0.164849     -0.110539 
 C385  C    -0.368528      0.071387     -0.116677 
 C386  C     0.362294     -0.081009      0.201733 
 O387  O    -0.489499     -0.001352      0.035417 
 O388  O     0.317004      0.003491     -0.060208 
 O389  O    -0.298930      0.001482      0.122511 
 O390  O     0.437414     -0.203890      0.083352 
 O391  O    -0.397260      0.187065      0.034248 
 O392  O    -0.483723     -0.092707     -0.158823 
 O393  O    -0.477730      0.088834      0.230398 
 O394  O    -0.372785     -0.020548     -0.007021 
 O395  O     0.470353      0.115060      0.014796 
 O396  O     0.482790     -0.037494      0.151803 
 O397  O    -0.373999      0.030299      0.064025 
 O398  O    -0.460198      0.114236      0.067911 
 O399  O    -0.459197      0.027758      0.152519 
 O400  O     0.394927      0.021923     -0.000165 
 O401  O     0.480361     -0.117646      0.060947 
 O402  O    -0.467195     -0.034665     -0.080151 
 O403  O     0.393256     -0.030857      0.069480 
 O404  O    -0.449590     -0.116978      0.008913 
 O405  O     0.484390      0.038131     -0.080837 
 Zn406  Zn     0.061581     -0.453303      0.057352 
 Zn407  Zn     0.062240      0.459782     -0.028981 
 Zn408  Zn    -0.027852     -0.456360     -0.026279 
 Zn409  Zn    -0.021406      0.457246      0.060327 
 H410  H    -0.179914      0.480750      0.098585 
 H411  H     0.224618      0.495875     -0.067096 
 H412  H     0.100192      0.297467      0.002976 
 H413  H    -0.071055     -0.297285      0.013144 
 H414  H    -0.003814     -0.418004     -0.186012 
 H415  H     0.010449      0.416069      0.218353 
 H416  H    -0.120960     -0.466090     -0.145278 
 H417  H     0.147672      0.458519      0.173951 
 H418  H    -0.144824      0.367284      0.062181 
 H419  H     0.178873     -0.338698     -0.042105 
 H420  H     0.065484      0.341708     -0.119011 
 H421  H     0.002400     -0.343296      0.148801 
 H422  H    -0.137217      0.471503     -0.166841 
 H423  H     0.160004     -0.477185      0.191840 
 H424  H    -0.164828      0.351087     -0.000786 
 H425  H     0.195529     -0.348511      0.023126 
 H426  H     0.001680      0.322717     -0.132624 
 H427  H     0.063062     -0.322021      0.170406 
 H428  H    -0.218394     -0.423230      0.210106 
 H429  H     0.274370      0.402929     -0.184933 
 H430  H     0.212943      0.254114      0.105533 
 H431  H    -0.192577     -0.296344     -0.028159 
 H432  H     0.081894     -0.290910     -0.214136 
 H433  H    -0.085387      0.298511      0.282666 
 H434  H    -0.202346     -0.358347      0.222697 
 H435  H     0.251608      0.340124     -0.197511 
 H436  H     0.223974      0.273847      0.169587 
 H437  H    -0.225352     -0.324271     -0.080969 
 H438  H     0.144005     -0.275026     -0.191546 
 H439  H    -0.147284      0.285203      0.257862 
 H440  H    -0.167401     -0.347013      0.130950 
 H441  H     0.236455      0.318421     -0.107993 
 H442  H     0.129531      0.295403      0.181143 
 H443  H    -0.149180     -0.305193     -0.142074 
 H444  H     0.162025     -0.368531     -0.168179 
 H445  H    -0.166606      0.376436      0.235165 
 H446  H    -0.182889     -0.411764      0.116451 
 H447  H     0.259078      0.378441     -0.085157 
 H448  H     0.115425      0.277755      0.116916 
 H449  H    -0.115887     -0.275214     -0.090714 
 H450  H     0.100209     -0.386876     -0.190083 
 H451  H    -0.107353      0.396482      0.262224 
 H452  H    -0.212547     -0.452523     -0.114094 
 H453  H     0.241829      0.445993      0.151481 
 H454  H    -0.112338      0.277352      0.076703 
 H455  H     0.152385     -0.246123     -0.019880 
 H456  H     0.078587      0.370255     -0.210349 
 H457  H    -0.020771     -0.370979      0.239517 
 H458  H    -0.229136      0.484427     -0.136575 
 H459  H     0.254849     -0.489288      0.171790 
 H460  H    -0.135982      0.258635      0.014401 
 H461  H     0.161822     -0.262111      0.046943 
 H462  H     0.016014      0.346177     -0.227483 
 H463  H     0.040331     -0.347757      0.261698 
 H464  H    -0.108666     -0.377955      0.202811 
 H465  H     0.164925      0.366524     -0.156693 
 H466  H     0.191903      0.363498      0.147208 
 H467  H    -0.152160     -0.388375     -0.091593 
 H468  H     0.119987     -0.308525     -0.102934 
 H469  H    -0.117443      0.321464      0.170559 
 H470  H    -0.125444     -0.442210      0.187974 
 H471  H     0.193846      0.425079     -0.137822 
 H472  H     0.178589      0.342589      0.083814 
 H473  H    -0.119208     -0.358690     -0.040321 
 H474  H     0.058863     -0.326807     -0.126651 
 H475  H    -0.059188      0.340220      0.200064 
 H476  H    -0.073796     -0.363672      0.109038 
 H477  H     0.149733      0.334784     -0.065019 
 H478  H     0.094441      0.384757      0.165616 
 H479  H    -0.075350     -0.369586     -0.151508 
 H480  H     0.143335     -0.405947     -0.080257 
 H481  H    -0.140137      0.415451      0.148950 
 H482  H    -0.114160     -0.380249      0.056294 
 H483  H     0.201371      0.334864     -0.019826 
 H484  H     0.047364      0.337609      0.149381 
 H485  H    -0.054379     -0.304781     -0.160141 
 H486  H     0.132569     -0.453219     -0.128644 
 H487  H    -0.141043      0.462415      0.199066 
 H488  H    -0.088102     -0.429429      0.096214 
 H489  H     0.173771      0.394041     -0.040518 
 H490  H     0.082644      0.369397      0.099924 
 H491  H    -0.041715     -0.337573     -0.101175 
 H492  H     0.079549     -0.420859     -0.099547 
 H493  H    -0.081531      0.436652      0.177169 
 H494  H    -0.120499     -0.473514      0.267969 
 H495  H     0.167756      0.462400     -0.219893 
 H496  H     0.260851      0.359384      0.052728 
 H497  H    -0.281966     -0.383972      0.045064 
 H498  H     0.019349     -0.248306     -0.113723 
 H499  H    -0.025472      0.259068      0.175856 
 H500  H    -0.198505     -0.491455     -0.231751 
 H501  H     0.216139      0.492747      0.264827 
 H502  H    -0.230175      0.289035      0.034584 
 H503  H     0.242752     -0.263348     -0.045216 
 H504  H     0.033337      0.252583     -0.190828 
 H505  H     0.021566     -0.254034      0.224894 
 H506  H    -0.145866     -0.384770      0.296057 
 H507  H     0.181766      0.374518     -0.253836 
 H508  H     0.290043      0.337379      0.140940 
 H509  H    -0.193081     -0.387604      0.014045 
 H510  H     0.106791     -0.212012     -0.128760 
 H511  H    -0.111891      0.223950      0.194078 
 H512  H    -0.214805     -0.405332     -0.181889 
 H513  H     0.238277      0.402891      0.227461 
 H514  H    -0.182854      0.273386      0.121777 
 H515  H     0.266892     -0.352452     -0.077187 
 H516  H     0.121564      0.294696     -0.212542 
 H517  H    -0.066565     -0.297730      0.237004 
 C518  C    -0.176610      0.484719      0.015429 
 C519  C     0.214672     -0.498990      0.015968 
 C520  C     0.017081      0.305571      0.008252 
 C521  C     0.012465     -0.301943      0.012833 
 C522  C     0.006980      0.499268     -0.180074 
 C523  C     0.027036      0.498324      0.212096 
 C524  C    -0.202329      0.484287      0.062878 
 C525  C     0.243848      0.496954     -0.029437 
 C526  C     0.063407      0.277573      0.009157 
 C527  C    -0.034781     -0.275752      0.016099 
 C528  C     0.003016     -0.454029     -0.207084 
 C529  C     0.016212      0.452485      0.239013 
 C530  C    -0.204584      0.489770     -0.030789 
 C531  C     0.238962     -0.499097      0.064569 
 C532  C    -0.030265      0.280398      0.016899 
 C533  C     0.059344     -0.274720      0.015023 
 C534  C     0.016160      0.452808     -0.206481 
 C535  C     0.033131     -0.454937      0.239146 
 C536  C     0.157169     -0.494772      0.011734 
 C537  C    -0.119339      0.492258      0.017162 
 C538  C     0.011905     -0.359617      0.015833 
 C539  C     0.020348      0.363225      0.011548 
 C540  C     0.025789      0.497694      0.154201 
 C541  C     0.011300     -0.498253     -0.122527 
 C542  C    -0.152937     -0.489235     -0.161454 
 C543  C     0.177285      0.483811      0.191236 
 C544  C    -0.160385      0.335350      0.038588 
 C545  C     0.192730     -0.318666     -0.007229 
 C546  C     0.040758      0.325068     -0.149524 
 C547  C     0.022318     -0.326106      0.182317 
 C548  C    -0.187100     -0.398096      0.224362 
 C549  C     0.239040      0.380603     -0.193129 
 C550  C     0.223324      0.287854      0.129352 
 C551  C    -0.198334     -0.332843     -0.049171 
 C552  C     0.103340     -0.278771     -0.179402 
 C553  C    -0.106268      0.288676      0.246857 
 C554  C    -0.152017     -0.386725      0.131760 
 C555  C     0.224027      0.357860     -0.097955 
 C556  C     0.127209      0.310560      0.141400 
 C557  C    -0.122018     -0.312628     -0.110118 
 C558  C     0.121625     -0.373682     -0.155709 
 C559  C    -0.125688      0.383727      0.225928 
 C560  C    -0.197152     -0.491321     -0.122389 
 C561  C     0.224858      0.484781      0.156281 
 C562  C    -0.121143      0.291245      0.037392 
 C563  C     0.153117     -0.278033      0.008390 
 C564  C     0.039464      0.361961     -0.195622 
 C565  C     0.019522     -0.363350      0.227971 
 C566  C    -0.140232     -0.402286      0.187893 
 C567  C     0.202261      0.384245     -0.146573 
 C568  C     0.180978      0.329387      0.124241 
 C569  C    -0.146582     -0.351012     -0.072012 
 C570  C     0.099555     -0.321345     -0.137984 
 C571  C    -0.100456      0.333102      0.207790 
 C572  C    -0.175346     -0.411664      0.281172 
 C573  C     0.215785      0.398527     -0.244853 
 C574  C     0.278190      0.305921      0.114759 
 C575  C    -0.222750     -0.372893     -0.012700 
 C576  C     0.083759     -0.225261     -0.162061 
 C577  C    -0.087575      0.235840      0.226957 
 C578  C    -0.168144     -0.467133     -0.214573 
 C579  C     0.187442      0.466687      0.247340 
 C580  C    -0.214097      0.319750      0.059258 
 C581  C     0.246548     -0.296272     -0.018433 
 C582  C     0.059309      0.269927     -0.161975 
 C583  C     0.000019     -0.271922      0.192891 
 C584  C    -0.104487     -0.390186      0.096452 
 C585  C     0.185127      0.355203     -0.053357 
 C586  C     0.085672      0.352851      0.138970 
 C587  C    -0.070501     -0.332153     -0.131997 
 C588  C     0.119217     -0.415655     -0.113833 
 C589  C    -0.121994      0.426961      0.185606 
 O590  O     0.018603     -0.498152      0.015402 
 O591  O    -0.176651      0.487147     -0.075704 
 O592  O     0.207525     -0.496540      0.107089 
 O593  O    -0.074333      0.309859      0.014269 
 O594  O     0.103771     -0.303092      0.009819 
 O595  O     0.016653      0.408819     -0.177024 
 O596  O     0.043122     -0.410823      0.211711 
 O597  O     0.135428      0.480042     -0.024442 
 O598  O    -0.024155     -0.382796     -0.008154 
 O599  O     0.000514      0.461389      0.132846 
 O600  O     0.134481     -0.465752      0.044101 
 O601  O     0.046728     -0.381001      0.042977 
 O602  O     0.050126     -0.466879      0.130569 
 O603  O    -0.098974     -0.479709     -0.017602 
 O604  O    -0.012855      0.385628      0.039872 
 O605  O     0.040389      0.468849     -0.100508 
 O606  O    -0.095652      0.471168      0.054735 
 O607  O     0.056778      0.385332     -0.013039 
 O608  O    -0.013633     -0.462293     -0.100212 
 Zn609  Zn     0.476271      0.453302     -0.020867 
 Zn610  Zn     0.474536     -0.461744      0.066364 
 Zn611  Zn    -0.436618      0.453291      0.065059 
 Zn612  Zn    -0.438299     -0.459577     -0.021473 
 H613  H     0.312210      0.499735      0.105344 
 H614  H    -0.280498     -0.499723     -0.064946 
 H615  H    -0.399587      0.291501      0.029650 
 H616  H     0.445644     -0.303370      0.071356 
 H617  H    -0.458823     -0.424264     -0.180919 
 H618  H    -0.467907      0.413153      0.225015 
 H619  H     0.388343     -0.465158     -0.136715 
 H620  H    -0.332955      0.444099      0.183093 
 H621  H     0.356266      0.365837      0.067321 
 H622  H    -0.302503     -0.303038     -0.039579 
 H623  H    -0.449492      0.340201     -0.111868 
 H624  H     0.463452     -0.341872      0.161609 
 H625  H     0.376143      0.470332     -0.153996 
 H626  H    -0.307827     -0.499618      0.212461 
 H627  H     0.339320      0.353550      0.002786 
 H628  H    -0.327301     -0.366779     -0.039606 
 H629  H     0.486934      0.319838     -0.123854 
 H630  H    -0.473960     -0.322083      0.179355 
 H631  H     0.250521     -0.415041      0.223020 
 H632  H    -0.241998      0.408662     -0.179905 
 H633  H    -0.273610      0.242969      0.111542 
 H634  H     0.353950     -0.295304     -0.020275 
 H635  H    -0.388652     -0.293204     -0.230579 
 H636  H     0.430121      0.298553      0.271572 
 H637  H     0.268132     -0.350915      0.236836 
 H638  H    -0.264836      0.346067     -0.192872 
 H639  H    -0.258200      0.262579      0.174698 
 H640  H     0.331557     -0.280459     -0.082880 
 H641  H    -0.324444     -0.276244     -0.216359 
 H642  H     0.366807      0.285427      0.250819 
 H643  H     0.288512     -0.325488      0.148907 
 H644  H    -0.287526      0.332393     -0.098881 
 H645  H    -0.347690      0.275171      0.201059 
 H646  H     0.419497     -0.295835     -0.123019 
 H647  H    -0.301890     -0.369783     -0.204769 
 H648  H     0.355142      0.380432      0.228000 
 H649  H     0.268667     -0.385996      0.124641 
 H650  H    -0.266183      0.395011     -0.082939 
 H651  H    -0.372231      0.255775      0.140573 
 H652  H     0.444530     -0.306999     -0.060670 
 H653  H    -0.365808     -0.390510     -0.215177 
 H654  H     0.419216      0.394454      0.246173 
 H655  H     0.293641     -0.453065     -0.114608 
 H656  H    -0.243509      0.428922      0.142501 
 H657  H     0.379149      0.270750      0.078866 
 H658  H    -0.349575     -0.285740      0.044278 
 H659  H    -0.437702      0.362065     -0.206017 
 H660  H     0.447455     -0.377115      0.249891 
 H661  H     0.281795      0.481336     -0.133091 
 H662  H    -0.225181      0.490944      0.167141 
 H663  H     0.362824      0.260244      0.012550 
 H664  H    -0.375791     -0.349230      0.041533 
 H665  H     0.498519      0.339170     -0.219212 
 H666  H    -0.491322     -0.352839      0.271249 
 H667  H     0.358697     -0.371277      0.200819 
 H668  H    -0.353403      0.371727     -0.160228 
 H669  H    -0.301178      0.349678      0.155953 
 H670  H     0.358117     -0.370652     -0.111627 
 H671  H    -0.332631     -0.316480     -0.128342 
 H672  H     0.389057      0.316784      0.161442 
 H673  H     0.334208     -0.430907      0.179284 
 H674  H    -0.329453      0.433579     -0.144872 
 H675  H    -0.322050      0.324833      0.096195 
 H676  H     0.383388     -0.382027     -0.049336 
 H677  H    -0.396625     -0.335141     -0.142365 
 H678  H     0.452562      0.330529      0.181843 
 H679  H     0.377477     -0.339214      0.109977 
 H680  H    -0.375662      0.351696     -0.062792 
 H681  H    -0.392489      0.361719      0.191949 
 H682  H     0.450509     -0.383915     -0.151763 
 H683  H    -0.301885     -0.411171     -0.116461 
 H684  H     0.371572      0.414867      0.138609 
 H685  H     0.327996     -0.339941      0.062519 
 H686  H    -0.327597      0.364271     -0.015579 
 H687  H    -0.437077      0.309613      0.188716 
 H688  H    -0.497533     -0.346381     -0.126869 
 H689  H    -0.316935     -0.457142     -0.165112 
 H690  H     0.387938      0.462118      0.185459 
 H691  H     0.356252     -0.398747      0.083623 
 H692  H    -0.356915      0.416181     -0.049477 
 H693  H    -0.417803      0.341928      0.131444 
 H694  H     0.474486     -0.395854     -0.088562 
 H695  H    -0.366743     -0.431306     -0.125723 
 H696  H     0.437292      0.426161      0.154255 
 H697  H     0.361150     -0.465239      0.262543 
 H698  H    -0.344514      0.467916     -0.226221 
 H699  H    -0.240522      0.352948      0.055252 
 H700  H     0.263027     -0.280601      0.017590 
 H701  H    -0.439196     -0.258309     -0.121027 
 H702  H     0.486006      0.248088      0.167857 
 H703  H     0.318548     -0.499975     -0.226350 
 H704  H    -0.267708      0.389403      0.227587 
 H705  H     0.267667      0.294974      0.032112 
 H706  H    -0.255974     -0.321052      0.044009 
 H707  H    -0.481245      0.246815     -0.178084 
 H708  H     0.489135     -0.258472      0.242475 
 H709  H     0.336397     -0.379507      0.296796 
 H710  H    -0.326638      0.379539     -0.257924 
 H711  H    -0.204294      0.334896      0.141039 
 H712  H     0.289278     -0.368510     -0.014904 
 H713  H    -0.354623     -0.220439     -0.143033 
 H714  H     0.398566      0.218465      0.189595 
 H715  H     0.296575     -0.410272     -0.190383 
 H716  H    -0.348411      0.410255      0.278406 
 H717  H     0.305029      0.273727      0.122186 
 H718  H    -0.235279     -0.406277     -0.035802 
 H719  H    -0.393363      0.287202     -0.203596 
 H720  H     0.400771     -0.304811      0.253801 
 C721  C     0.322263      0.494743      0.022223 
 C722  C    -0.284097      0.496700      0.018761 
 C723  C    -0.482720      0.301137      0.026522 
 C724  C    -0.482344     -0.306955      0.028013 
 C725  C    -0.478539      0.494386     -0.174374 
 C726  C    -0.477694      0.496251      0.219079 
 C727  C     0.293048      0.498558      0.067670 
 C728  C    -0.258508      0.496251     -0.029048 
 C729  C    -0.437182      0.272113      0.029715 
 C730  C     0.476821     -0.281606      0.052998 
 C731  C    -0.467581     -0.460121     -0.201540 
 C732  C    -0.475908      0.449101      0.245766 
 C733  C     0.297884      0.494386     -0.026320 
 C734  C    -0.256083      0.490359      0.064778 
 C735  C     0.468644      0.277020      0.027810 
 C736  C    -0.441921     -0.277361      0.006858 
 C737  C    -0.487500      0.447941     -0.201046 
 C738  C    -0.488883     -0.457653      0.245633 
 C739  C     0.379966      0.492720      0.025873 
 C740  C    -0.341914      0.498188      0.019604 
 C741  C    -0.478383      0.358406      0.021414 
 C742  C    -0.483932     -0.364892      0.024415 
 C743  C    -0.481024      0.496952     -0.116715 
 C744  C    -0.478460      0.494808      0.161173 
 C745  C     0.358671     -0.490750     -0.153523 
 C746  C    -0.297066      0.461805      0.197870 
 C747  C     0.340024      0.335981      0.041656 
 C748  C    -0.314830     -0.334932     -0.014168 
 C749  C    -0.474148      0.321621     -0.141231 
 C750  C     0.486402     -0.326923      0.194287 
 C751  C     0.283761     -0.390360      0.232961 
 C752  C    -0.276864      0.386899     -0.190989 
 C753  C    -0.264669      0.277222      0.135209 
 C754  C     0.337046     -0.312469     -0.055305 
 C755  C    -0.362669     -0.282492     -0.198602 
 C756  C     0.407291      0.286772      0.237605 
 C757  C     0.302495     -0.364528      0.139165 
 C758  C    -0.300380      0.372849     -0.095326 
 C759  C    -0.359130      0.289741      0.162718 
 C760  C     0.427083     -0.326394     -0.094328 
 C761  C    -0.338628     -0.377863     -0.184926 
 C762  C     0.395046      0.382430      0.213226 
 C763  C     0.311288     -0.491664     -0.118408 
 C764  C    -0.258139      0.467214      0.154275 
 C765  C     0.376166      0.289335      0.040650 
 C766  C    -0.360708     -0.317181      0.017824 
 C767  C    -0.476375      0.355960     -0.189190 
 C768  C     0.486969     -0.367130      0.237486 
 C769  C     0.323024     -0.390821      0.188364 
 C770  C    -0.318230      0.392649     -0.148535 
 C771  C    -0.311675      0.313638      0.135972 
 C772  C     0.375690     -0.351405     -0.077997 
 C773  C    -0.358637     -0.327681     -0.160130 
 C774  C     0.412188      0.328343      0.195243 
 C775  C     0.305756     -0.406825      0.285693 
 C776  C    -0.294053      0.403960     -0.245417 
 C777  C    -0.213969      0.301802      0.116046 
 C778  C     0.284135     -0.335940     -0.041896 
 C779  C    -0.380972     -0.231148     -0.174736 
 C780  C     0.423703      0.231848      0.221285 
 C781  C     0.347790     -0.474030     -0.209545 
 C782  C    -0.275312      0.428736      0.242044 
 C783  C     0.284120      0.324136      0.058335 
 C784  C    -0.268912     -0.352947      0.018923 
 C785  C    -0.455034      0.266032     -0.150667 
 C786  C     0.465492     -0.273550      0.210478 
 C787  C     0.343268     -0.360390      0.096425 
 C788  C    -0.342383      0.376433     -0.053551 
 C789  C    -0.404109      0.327820      0.169089 
 C790  C     0.465746     -0.365258     -0.116752 
 C791  C    -0.330589     -0.421795     -0.145930 
 C792  C     0.398120      0.423599      0.170590 
 O793  O    -0.480704      0.496816      0.022561 
 O794  O     0.329188      0.491399     -0.068866 
 O795  O    -0.282193      0.491524      0.110802 
 O796  O     0.425999      0.308354      0.025679 
 O797  O    -0.400049     -0.298897     -0.016819 
 O798  O    -0.497397      0.404485     -0.172612 
 O799  O    -0.488596     -0.412691      0.217529 
 O800  O     0.401277     -0.482180      0.062357 
 O801  O    -0.441507      0.380223      0.045433 
 O802  O    -0.454187     -0.468155     -0.094948 
 O803  O     0.403399      0.465581     -0.007562 
 O804  O     0.488733      0.380723     -0.007242 
 O805  O     0.489855      0.464856     -0.093813 
 O806  O    -0.364467      0.472450      0.054814 
 O807  O    -0.450541     -0.387085     -0.003938 
 O808  O     0.494702     -0.471047      0.138265 
 O809  O    -0.364152     -0.475381     -0.015366 
 O810  O     0.481016     -0.387732      0.050258 
 O811  O    -0.453053      0.458867      0.139218 
 Zn812  Zn     0.047711      0.045414     -0.427188 
 Zn813  Zn     0.049445     -0.039540      0.485581 
 Zn814  Zn    -0.039400      0.045425      0.486886 
 Zn815  Zn    -0.037719     -0.041707     -0.426582 
 H816  H    -0.195520     -0.001561     -0.383109 
 H817  H     0.211772     -0.001020      0.446602 
 H818  H     0.078338     -0.197914      0.480589 
 H819  H    -0.076431      0.207214     -0.477705 
 H820  H    -0.008111      0.085563      0.326930 
 H821  H    -0.017196     -0.077021     -0.267135 
 H822  H    -0.143063      0.054617      0.368852 
 H823  H     0.135639     -0.036126     -0.311339 
 H824  H    -0.173515     -0.198247     -0.408475 
 H825  H     0.167716      0.132879      0.484624 
 H826  H     0.060530     -0.159412      0.390337 
 H827  H    -0.026526      0.158515     -0.336186 
 H828  H    -0.168192     -0.001666      0.339485 
 H829  H     0.147839      0.028384     -0.294059 
 H830  H    -0.148717     -0.134505     -0.408448 
 H831  H     0.184662      0.145166     -0.450841 
 H832  H    -0.002059     -0.179201      0.372591 
 H833  H     0.037048      0.178878     -0.324200 
 H834  H    -0.234020      0.090054     -0.268150 
 H835  H     0.273461     -0.086243      0.328925 
 H836  H     0.170032     -0.205980     -0.427780 
 H837  H    -0.202408      0.255747      0.440404 
 H838  H     0.093861      0.200163      0.280373 
 H839  H    -0.087367     -0.208080     -0.217475 
 H840  H    -0.211182      0.152649     -0.255182 
 H841  H     0.255850     -0.150370      0.315109 
 H842  H     0.192425     -0.220825     -0.365175 
 H843  H    -0.217818      0.236137      0.377247 
 H844  H     0.157175      0.213289      0.301127 
 H845  H    -0.151574     -0.225041     -0.231695 
 H846  H    -0.188492      0.166323     -0.349174 
 H847  H     0.235470     -0.175796      0.403038 
 H848  H     0.104485     -0.205449     -0.325035 
 H849  H    -0.128329      0.223545      0.350887 
 H850  H     0.168840      0.118284      0.323945 
 H851  H    -0.174128     -0.131501     -0.243285 
 H852  H    -0.209835      0.103705     -0.365115 
 H853  H     0.255315     -0.115288      0.427305 
 H854  H     0.079452     -0.194285     -0.387384 
 H855  H    -0.103787      0.242941      0.411372 
 H856  H     0.104766      0.104262      0.305772 
 H857  H    -0.110210     -0.110774     -0.232877 
 H858  H    -0.232509      0.069794      0.409444 
 H859  H     0.230341     -0.048219     -0.333447 
 H860  H    -0.126443     -0.215544     -0.492333 
 H861  H     0.144832      0.227966      0.473080 
 H862  H     0.076527     -0.124169      0.302054 
 H863  H    -0.038316      0.136651     -0.242038 
 H864  H    -0.250837      0.007771      0.384804 
 H865  H     0.242187      0.017380     -0.314963 
 H866  H    -0.100227     -0.152054     -0.489588 
 H867  H     0.161158      0.238472     -0.460605 
 H868  H     0.015304     -0.148445      0.280696 
 H869  H     0.025463      0.159546     -0.228842 
 H870  H    -0.122615      0.126989     -0.287826 
 H871  H     0.165285     -0.130008      0.351127 
 H872  H     0.165865     -0.130632     -0.336427 
 H873  H    -0.174840      0.149038      0.395992 
 H874  H     0.134924      0.181932      0.390503 
 H875  H    -0.143387     -0.184804     -0.319713 
 H876  H    -0.146565      0.065136     -0.303183 
 H877  H     0.189774     -0.070378      0.372661 
 H878  H     0.140594     -0.119257     -0.398719 
 H879  H    -0.153968      0.173883      0.455751 
 H880  H     0.071419      0.168187      0.370103 
 H881  H    -0.079393     -0.166143     -0.305689 
 H882  H    -0.100357      0.147020     -0.385262 
 H883  H     0.146505     -0.162071      0.441968 
 H884  H     0.073473     -0.117370     -0.296292 
 H885  H    -0.083529      0.136997      0.359997 
 H886  H     0.152410      0.083849      0.413337 
 H887  H    -0.174133     -0.090113     -0.331594 
 H888  H    -0.148421      0.134445     -0.432476 
 H889  H     0.195986     -0.161343      0.489426 
 H890  H     0.021515     -0.154903     -0.321186 
 H891  H    -0.038942      0.189102      0.363230 
 H892  H     0.136044      0.036598      0.366486 
 H893  H    -0.159084     -0.044143     -0.282943 
 H894  H    -0.119104      0.082535     -0.398577 
 H895  H     0.167730     -0.102537      0.468323 
 H896  H     0.049496     -0.105430     -0.359492 
 H897  H    -0.058215      0.156788      0.420501 
 H898  H     0.086690      0.072555      0.397691 
 H899  H    -0.109275     -0.069978     -0.322331 
 H900  H    -0.131505      0.030800     -0.221833 
 H901  H     0.162832     -0.036045      0.289403 
 H902  H     0.260955     -0.220683     -0.465644 
 H903  H    -0.235496      0.145768      0.496694 
 H904  H     0.037975      0.250627      0.384088 
 H905  H    -0.036822     -0.242975     -0.327028 
 H906  H    -0.208310      0.109313      0.324358 
 H907  H     0.205434     -0.001309     -0.221704 
 H908  H    -0.220044     -0.180232     -0.492063 
 H909  H     0.256315      0.203742     -0.480166 
 H910  H     0.034847     -0.242812      0.309471 
 H911  H     0.005227      0.251901     -0.269970 
 H912  H    -0.149380      0.119177     -0.190131 
 H913  H     0.187584     -0.121778      0.255149 
 H914  H     0.234703     -0.132774     -0.433151 
 H915  H    -0.271724      0.163820      0.410907 
 H916  H     0.125416      0.280251      0.362351 
 H917  H    -0.121395     -0.280846     -0.305022 
 H918  H    -0.127607      0.088460      0.273539 
 H919  H     0.227406     -0.091013     -0.257671 
 H920  H    -0.240739     -0.095007     -0.412253 
 H921  H     0.218953      0.224989      0.429759 
 H922  H     0.123211     -0.196473      0.298144 
 H923  H    -0.082655      0.211514     -0.244459 
 C924  C    -0.191921      0.002016     -0.466815 
 C925  C     0.201719      0.003973     -0.470278 
 C926  C     0.006326     -0.194329     -0.476067 
 C927  C     0.006702      0.197578     -0.474577 
 C928  C     0.001676      0.002465      0.332867 
 C929  C     0.002521      0.004330     -0.273680 
 C930  C    -0.217510      0.002465     -0.419007 
 C931  C     0.230934      0.000158      0.484276 
 C932  C     0.047161     -0.219679      0.498947 
 C933  C    -0.038836      0.226603     -0.477770 
 C934  C    -0.000111      0.049615      0.306180 
 C935  C    -0.008437     -0.041163     -0.246514 
 C936  C    -0.219936      0.008357      0.487167 
 C937  C     0.226098      0.004330     -0.421734 
 C938  C    -0.034097     -0.223923     -0.454912 
 C939  C     0.055338      0.221696     -0.475864 
 C940  C     0.012865     -0.043631      0.306313 
 C941  C     0.011482      0.050775     -0.247008 
 C942  C     0.144016      0.005996     -0.473928 
 C943  C    -0.134104      0.000527     -0.467659 
 C944  C     0.002365      0.140310     -0.469469 
 C945  C     0.007914     -0.136392     -0.472470 
 C946  C     0.005006      0.001763     -0.331340 
 C947  C     0.002442      0.003908      0.390773 
 C948  C    -0.178952      0.036911      0.354076 
 C949  C     0.165311     -0.010534     -0.294532 
 C950  C    -0.161188     -0.166353     -0.433887 
 C951  C     0.183958      0.162735     -0.489710 
 C952  C     0.037580     -0.174361      0.357659 
 C953  C    -0.001871      0.177095     -0.306823 
 C954  C    -0.199154      0.111817     -0.257065 
 C955  C     0.240221     -0.110924      0.318985 
 C956  C     0.186936     -0.188815     -0.392750 
 C957  C    -0.211349      0.221494      0.416736 
 C958  C     0.116691      0.211944      0.314341 
 C959  C    -0.113349     -0.218792     -0.249453 
 C960  C    -0.175638      0.125867     -0.352729 
 C961  C     0.221486     -0.136756      0.412781 
 C962  C     0.096899     -0.174891     -0.353727 
 C963  C    -0.116888      0.208975      0.389228 
 C964  C     0.128936      0.116285      0.338720 
 C965  C    -0.137390     -0.123421     -0.263129 
 C966  C    -0.217879      0.031502      0.397670 
 C967  C     0.212693     -0.009621     -0.329647 
 C968  C    -0.115310     -0.184103     -0.465879 
 C969  C     0.147816      0.209381     -0.488704 
 C970  C     0.037013     -0.134154      0.314460 
 C971  C     0.000357      0.142756     -0.258864 
 C972  C    -0.157788      0.106067     -0.299519 
 C973  C     0.200958     -0.110463      0.363582 
 C974  C     0.148292     -0.149879     -0.370058 
 C975  C    -0.164343      0.185078      0.415974 
 C976  C     0.111794      0.170372      0.356703 
 C977  C    -0.117382     -0.173604     -0.287924 
 C978  C    -0.181965      0.094756     -0.202637 
 C979  C     0.218225     -0.094459      0.266252 
 C980  C     0.239847     -0.165344     -0.406159 
 C981  C    -0.262049      0.196914      0.435899 
 C982  C     0.100279      0.266868      0.330660 
 C983  C    -0.095046     -0.270137     -0.273319 
 C984  C    -0.200706      0.069980      0.309901 
 C985  C     0.176192     -0.027254     -0.238510 
 C986  C    -0.207106     -0.148337     -0.466977 
 C987  C     0.239862      0.174579      0.493611 
 C988  C     0.058490     -0.227735      0.341467 
 C989  C    -0.020984      0.232684     -0.297388 
 C990  C    -0.133635      0.122283     -0.394503 
 C991  C     0.180714     -0.140894      0.455521 
 C992  C     0.058236     -0.136027     -0.331303 
 C993  C    -0.071910      0.170896      0.382857 
 C994  C     0.125862      0.075117      0.381355 
 C995  C    -0.145429     -0.079489     -0.302124 
 O996  O     0.004686      0.001899     -0.470615 
 O997  O    -0.193825      0.007192      0.441143 
 O998  O     0.194794      0.007316     -0.379188 
 O999  O    -0.075969     -0.202387     -0.431236 
 O1000  O     0.097983      0.190362     -0.473734 
 O1001  O     0.012578     -0.088593      0.334417 
 O1002  O     0.021379      0.094230     -0.275442 
 O1003  O     0.122704     -0.019104      0.489589 
 O1004  O    -0.034511      0.118493     -0.493487 
 O1005  O    -0.021831     -0.033129     -0.353106 
 O1006  O     0.120583      0.033135     -0.440492 
 O1007  O     0.035249      0.117992     -0.440813 
 O1008  O     0.034127      0.033859     -0.354241 
 O1009  O    -0.111551      0.026266      0.497132 
 O1010  O    -0.025477     -0.114199     -0.444117 
 O1011  O     0.029280     -0.030237      0.413680 
 O1012  O    -0.111866     -0.025903     -0.432688 
 O1013  O     0.042966     -0.113552     -0.498313 
 O1014  O    -0.022965      0.039849      0.412728 
 Zn1015  Zn     0.462401     -0.047981      0.494593 
 Zn1016  Zn     0.461741      0.038934     -0.419073 
 Zn1017  Zn    -0.448166     -0.044924     -0.421775 
 Zn1018  Zn    -0.454612      0.041470      0.491619 
 H1019  H     0.299363      0.002841     -0.380959 
 H1020  H    -0.296104      0.017966      0.453361 
 H1021  H    -0.404964     -0.203999     -0.461199 
 H1022  H     0.423790      0.201249     -0.451031 
 H1023  H    -0.486467      0.082647      0.333592 
 H1024  H    -0.472204     -0.083281     -0.262043 
 H1025  H     0.376310      0.040197      0.377995 
 H1026  H    -0.355058     -0.035194     -0.302777 
 H1027  H     0.345109     -0.162586     -0.405949 
 H1028  H    -0.331194      0.131432      0.489765 
 H1029  H    -0.478418     -0.157988      0.403145 
 H1030  H     0.458497      0.157008     -0.329044 
 H1031  H     0.363977     -0.024099      0.360106 
 H1032  H    -0.338801      0.027213     -0.281213 
 H1033  H     0.328453     -0.152773     -0.471181 
 H1034  H    -0.311190      0.147628     -0.447268 
 H1035  H     0.460920     -0.179264      0.381539 
 H1036  H    -0.477698      0.175998     -0.315431 
 H1037  H     0.249612      0.095786     -0.263122 
 H1038  H    -0.257624     -0.078055      0.341840 
 H1039  H    -0.283441     -0.204941     -0.419896 
 H1040  H     0.311039      0.244602      0.446413 
 H1041  H    -0.390631      0.200204      0.269280 
 H1042  H     0.442088     -0.210374     -0.233919 
 H1043  H     0.272374      0.158592     -0.250543 
 H1044  H    -0.273672     -0.142937      0.329249 
 H1045  H    -0.250666     -0.177013     -0.367085 
 H1046  H     0.300008      0.224869      0.382359 
 H1047  H    -0.328734      0.213513      0.294083 
 H1048  H     0.379976     -0.226258     -0.256509 
 H1049  H     0.287527      0.180295     -0.340061 
 H1050  H    -0.308617     -0.154271      0.420996 
 H1051  H    -0.326838     -0.196091     -0.305980 
 H1052  H     0.394451      0.203313      0.370803 
 H1053  H    -0.309412      0.122280      0.316780 
 H1054  H     0.361957     -0.132753     -0.279876 
 H1055  H     0.264903      0.120275     -0.362897 
 H1056  H    -0.293129     -0.089520      0.435495 
 H1057  H    -0.360131     -0.226070     -0.357341 
 H1058  H     0.408556      0.220961      0.435030 
 H1059  H    -0.368665      0.102234      0.289722 
 H1060  H     0.423773     -0.114408     -0.257971 
 H1061  H     0.282153      0.052723      0.400465 
 H1062  H    -0.263471     -0.048762     -0.333961 
 H1063  H     0.371597     -0.255161     -0.428175 
 H1064  H    -0.363680      0.221364      0.475242 
 H1065  H    -0.455247     -0.130305      0.312428 
 H1066  H     0.445395      0.128461     -0.237706 
 H1067  H     0.269133     -0.011996      0.380156 
 H1068  H    -0.246882      0.014288     -0.311480 
 H1069  H     0.362160     -0.239173     -0.494997 
 H1070  H    -0.340036      0.240081     -0.462456 
 H1071  H     0.483651     -0.153527      0.290248 
 H1072  H    -0.492032      0.152539     -0.220571 
 H1073  H     0.359057      0.132191     -0.291362 
 H1074  H    -0.367352     -0.123329      0.349134 
 H1075  H    -0.323858     -0.112909     -0.356462 
 H1076  H     0.332079      0.135217      0.404738 
 H1077  H    -0.358575      0.177252      0.381386 
 H1078  H     0.403995     -0.192759     -0.345121 
 H1079  H     0.330136      0.073637     -0.310232 
 H1080  H    -0.350574     -0.059074      0.363971 
 H1081  H    -0.356810     -0.142595     -0.407733 
 H1082  H     0.345393      0.156127      0.468131 
 H1083  H    -0.416830      0.158495      0.351882 
 H1084  H     0.465119     -0.174477     -0.321403 
 H1085  H     0.374249      0.163931     -0.383036 
 H1086  H    -0.402222     -0.137612      0.442908 
 H1087  H    -0.400668     -0.131698     -0.296546 
 H1088  H     0.429541      0.113958      0.386330 
 H1089  H    -0.335881      0.083265      0.402995 
 H1090  H     0.380647     -0.095337     -0.367797 
 H1091  H     0.322611      0.163852     -0.428229 
 H1092  H    -0.361858     -0.121035      0.495651 
 H1093  H    -0.421639     -0.196503     -0.287914 
 H1094  H     0.476618      0.161107      0.402564 
 H1095  H    -0.334975      0.036301      0.352879 
 H1096  H     0.391412     -0.048065     -0.319411 
 H1097  H     0.350211      0.104675     -0.407537 
 H1098  H    -0.387916     -0.071855      0.455732 
 H1099  H    -0.434303     -0.163711     -0.346880 
 H1100  H     0.441338      0.129319      0.452021 
 H1101  H    -0.394487      0.062063      0.374776 
 H1102  H     0.444433     -0.080425     -0.348508 
 H1103  H     0.356226      0.036315     -0.228161 
 H1104  H    -0.355519     -0.027771      0.283976 
 H1105  H    -0.194052     -0.117312     -0.493119 
 H1106  H     0.263131      0.139332      0.499218 
 H1107  H    -0.450546      0.239648      0.376089 
 H1108  H    -0.495368     -0.252979     -0.334331 
 H1109  H     0.307843      0.005969      0.287119 
 H1110  H    -0.277513     -0.009829     -0.216304 
 H1111  H     0.281230     -0.237936     -0.402839 
 H1112  H    -0.245843      0.209681     -0.482639 
 H1113  H    -0.497584     -0.247250      0.327051 
 H1114  H     0.490645      0.246133     -0.257227 
 H1115  H     0.342215      0.124198     -0.194218 
 H1116  H    -0.330152     -0.116515      0.255888 
 H1117  H    -0.282937     -0.113681     -0.462099 
 H1118  H     0.233939      0.161336      0.411006 
 H1119  H    -0.364127      0.274766      0.357868 
 H1120  H     0.417191     -0.289272     -0.319294 
 H1121  H     0.285705      0.095825      0.324485 
 H1122  H    -0.261213     -0.095953     -0.266165 
 H1123  H     0.257090     -0.148832     -0.370867 
 H1124  H    -0.293164      0.225330      0.430169 
 H1125  H    -0.409453     -0.203554      0.314942 
 H1126  H     0.402418      0.204020     -0.235512 
 C1127  C     0.309310     -0.002295     -0.464022 
 C1128  C    -0.299408      0.013997     -0.463483 
 C1129  C    -0.488483     -0.199341     -0.460887 
 C1130  C    -0.493100      0.193145     -0.456306 
 C1131  C     0.496946      0.000392      0.339850 
 C1132  C    -0.482998     -0.000552     -0.267981 
 C1133  C     0.280134      0.001762     -0.418617 
 C1134  C    -0.273689      0.014428      0.489068 
 C1135  C    -0.441237     -0.225532     -0.464153 
 C1136  C     0.460575      0.221143     -0.457211 
 C1137  C    -0.492230      0.046231      0.312933 
 C1138  C    -0.479034     -0.047255     -0.240971 
 C1139  C     0.285020     -0.002187      0.487376 
 C1140  C    -0.271434      0.008946     -0.417266 
 C1141  C     0.464638     -0.226564     -0.463077 
 C1142  C    -0.445753      0.218318     -0.464953 
 C1143  C     0.490851     -0.046347      0.312799 
 C1144  C    -0.492178      0.045908     -0.241573 
 C1145  C     0.366813     -0.006512     -0.459789 
 C1146  C    -0.356679      0.006458     -0.465216 
 C1147  C    -0.487923     -0.141667     -0.463888 
 C1148  C    -0.496366      0.135491     -0.459603 
 C1149  C     0.498193      0.001022      0.397745 
 C1150  C    -0.487318     -0.003031     -0.325527 
 C1151  C     0.346697      0.014905      0.360710 
 C1152  C    -0.323081     -0.012049     -0.286601 
 C1153  C     0.331252     -0.182618     -0.440826 
 C1154  C    -0.315633      0.163366     -0.486642 
 C1155  C    -0.498336     -0.175178      0.369628 
 C1156  C     0.483224      0.173648     -0.298530 
 C1157  C     0.284942      0.118113     -0.254925 
 C1158  C    -0.288918     -0.103188      0.327583 
 C1159  C    -0.277684     -0.168441     -0.398883 
 C1160  C     0.300658      0.210862      0.422593 
 C1161  C    -0.369751      0.210040      0.305089 
 C1162  C     0.420642     -0.222514     -0.268653 
 C1163  C     0.299955      0.140856     -0.350099 
 C1164  C    -0.324001     -0.114559      0.420185 
 C1165  C    -0.354001     -0.188656     -0.337937 
 C1166  C     0.396772      0.188156      0.410546 
 C1167  C    -0.350330      0.114989      0.326018 
 C1168  C     0.402357     -0.127603     -0.292345 
 C1169  C     0.299124      0.013934      0.395665 
 C1170  C    -0.278867     -0.009963     -0.325666 
 C1171  C     0.370865     -0.223251     -0.456445 
 C1172  C    -0.354875      0.207471     -0.485447 
 C1173  C    -0.495540     -0.137934      0.323975 
 C1174  C     0.484518      0.136755     -0.252433 
 C1175  C     0.321721      0.114471     -0.301481 
 C1176  C    -0.335786     -0.098998      0.364053 
 C1177  C    -0.329436     -0.150272     -0.376042 
 C1178  C     0.343003      0.169329      0.427705 
 C1179  C    -0.375563      0.165614      0.344155 
 C1180  C     0.424427     -0.179939     -0.310070 
 C1181  C     0.308197      0.100189     -0.203201 
 C1182  C    -0.300672     -0.089620      0.270774 
 C1183  C    -0.253268     -0.128391     -0.435354 
 C1184  C     0.245792      0.192795      0.437187 
 C1185  C    -0.388443      0.262876      0.324989 
 C1186  C     0.440223     -0.276023     -0.285993 
 C1187  C     0.336540      0.032029      0.304606 
 C1188  C    -0.307875     -0.034151     -0.233482 
 C1189  C     0.277434     -0.205012     -0.429621 
 C1190  C    -0.261921      0.178966      0.492687 
 C1191  C    -0.476037     -0.229362      0.359054 
 C1192  C     0.464672      0.228789     -0.286080 
 C1193  C     0.338855      0.143513     -0.394698 
 C1194  C    -0.371531     -0.111098      0.455493 
 C1195  C    -0.405517     -0.169131     -0.316057 
 C1196  C     0.438310      0.145865      0.412976 
 C1197  C    -0.354024      0.071755      0.366340 
 C1198  C     0.404764     -0.085629     -0.334221 
 O1199  O    -0.494621     -0.003132     -0.463456 
 O1200  O     0.316456     -0.004744      0.444856 
 O1201  O    -0.299367      0.011569     -0.372350 
 O1202  O     0.420211     -0.198192     -0.457873 
 O1203  O    -0.401685      0.188857     -0.462323 
 O1204  O     0.480860     -0.090461      0.340234 
 O1205  O    -0.492671      0.089897     -0.271030 
 O1206  O     0.388554      0.018674     -0.423613 
 O1207  O    -0.451863     -0.118489     -0.439900 
 O1208  O    -0.476532      0.037327      0.419100 
 O1209  O     0.389500     -0.035533     -0.492155 
 O1210  O     0.477254     -0.120283     -0.491032 
 O1211  O     0.473856     -0.034405      0.421377 
 O1212  O    -0.377044     -0.021575     -0.430452 
 O1213  O    -0.463163      0.113088     -0.487927 
 O1214  O     0.483593      0.029867     -0.347546 
 O1215  O    -0.380366      0.027548      0.497211 
 O1216  O     0.467204      0.113384     -0.435015 
 O1217  O    -0.462386     -0.038991     -0.347843 
 Zn1218  Zn    -0.029430      0.457324      0.472356 
 Zn1219  Zn    -0.030683     -0.458194     -0.439335 
 Zn1220  Zn     0.057038      0.456154     -0.441069 
 Zn1221  Zn     0.056525     -0.455916      0.473834 
 H1222  H    -0.190690      0.496904     -0.396238 
 H1223  H     0.217078     -0.483499      0.438471 
 H1224  H     0.095906      0.295013     -0.479440 
 H1225  H    -0.063860     -0.299487     -0.438667 
 H1226  H     0.035619     -0.418146      0.314106 
 H1227  H     0.029162      0.417118     -0.280918 
 H1228  H    -0.118507     -0.456805      0.363114 
 H1229  H     0.151270      0.451394     -0.314964 
 H1230  H    -0.147294      0.369161     -0.436503 
 H1231  H     0.152603     -0.368665      0.465924 
 H1232  H     0.047359      0.346536      0.385242 
 H1233  H    -0.043523     -0.338348     -0.341897 
 H1234  H    -0.128893      0.478302      0.346417 
 H1235  H     0.169217     -0.485350     -0.297663 
 H1236  H    -0.167059      0.355809      0.499947 
 H1237  H     0.142421     -0.357240     -0.467941 
 H1238  H    -0.015690      0.326020      0.371003 
 H1239  H     0.019825     -0.317667     -0.328619 
 H1240  H    -0.245451     -0.412825     -0.272271 
 H1241  H     0.255160      0.419288      0.320282 
 H1242  H     0.212003      0.240532     -0.383698 
 H1243  H    -0.146856     -0.295419      0.482004 
 H1244  H     0.111338     -0.287523      0.266978 
 H1245  H    -0.068717      0.304932     -0.229100 
 H1246  H    -0.223380     -0.350335     -0.257002 
 H1247  H     0.236142      0.355189      0.308264 
 H1248  H     0.224193      0.261167     -0.320103 
 H1249  H    -0.172455     -0.277083      0.421475 
 H1250  H     0.174583     -0.272531      0.286683 
 H1251  H    -0.132898      0.290924     -0.246423 
 H1252  H    -0.208902     -0.323869     -0.346111 
 H1253  H     0.211929      0.343253      0.402281 
 H1254  H     0.133259      0.277754     -0.301402 
 H1255  H    -0.089326     -0.290433      0.372050 
 H1256  H     0.194915     -0.366098      0.295856 
 H1257  H    -0.147417      0.384894     -0.271266 
 H1258  H    -0.232338     -0.383112     -0.370340 
 H1259  H     0.228835      0.407579      0.416812 
 H1260  H     0.111885      0.259609     -0.363442 
 H1261  H    -0.059479     -0.300401      0.432398 
 H1262  H     0.131918     -0.385964      0.279862 
 H1263  H    -0.082958      0.400550     -0.255932 
 H1264  H    -0.213218     -0.446576      0.384701 
 H1265  H     0.240617      0.434001     -0.348798 
 H1266  H    -0.121496      0.275230     -0.424958 
 H1267  H     0.159433     -0.269567      0.452765 
 H1268  H     0.062934      0.367224      0.291353 
 H1269  H    -0.052906     -0.372157     -0.251577 
 H1270  H    -0.224435      0.488134      0.364845 
 H1271  H     0.260688      0.496794     -0.327891 
 H1272  H    -0.142164      0.262682     -0.489699 
 H1273  H     0.140532     -0.263111     -0.481396 
 H1274  H    -0.000159      0.343872      0.275861 
 H1275  H     0.010122     -0.348235     -0.236020 
 H1276  H    -0.137004     -0.373222     -0.300037 
 H1277  H     0.145549      0.376604      0.337943 
 H1278  H     0.186892      0.349581     -0.343729 
 H1279  H    -0.147172     -0.366608      0.387353 
 H1280  H     0.158640     -0.316163      0.372151 
 H1281  H    -0.114750      0.320358     -0.337684 
 H1282  H    -0.165046     -0.431449     -0.321174 
 H1283  H     0.165372      0.440224      0.351925 
 H1284  H     0.169201      0.324446     -0.404376 
 H1285  H    -0.116559     -0.378718      0.447076 
 H1286  H     0.095826     -0.333165      0.352074 
 H1287  H    -0.050879      0.335786     -0.319941 
 H1288  H    -0.123127     -0.339757     -0.391029 
 H1289  H     0.121623      0.358217      0.435044 
 H1290  H     0.095638      0.367388     -0.314685 
 H1291  H    -0.056746     -0.377361      0.341160 
 H1292  H     0.187598     -0.410955      0.382539 
 H1293  H    -0.134840      0.417060     -0.362209 
 H1294  H    -0.175559     -0.337206     -0.435025 
 H1295  H     0.167339      0.375016      0.483280 
 H1296  H     0.047693      0.318523     -0.319632 
 H1297  H    -0.004922     -0.337262      0.361899 
 H1298  H     0.177074     -0.454795      0.330870 
 H1299  H    -0.118117      0.465983     -0.317213 
 H1300  H    -0.148354     -0.397690     -0.417514 
 H1301  H     0.136121      0.424075      0.446929 
 H1302  H     0.072621      0.348011     -0.376177 
 H1303  H    -0.027450     -0.387764      0.402377 
 H1304  H     0.124005     -0.430609      0.366810 
 H1305  H    -0.068951      0.430394     -0.349080 
 H1306  H    -0.134600     -0.470193     -0.240677 
 H1307  H     0.151551      0.472245      0.269618 
 H1308  H     0.251454      0.349904     -0.437696 
 H1309  H    -0.237285     -0.280740     -0.478172 
 H1310  H     0.052894     -0.254894      0.373798 
 H1311  H    -0.017434      0.254192     -0.333990 
 H1312  H    -0.185090     -0.494332      0.272198 
 H1313  H     0.232225      0.479966     -0.232536 
 H1314  H    -0.235094      0.294874     -0.466174 
 H1315  H     0.230594     -0.316198     -0.461342 
 H1316  H     0.018381      0.252125      0.319152 
 H1317  H    -0.013136     -0.253522     -0.264231 
 H1318  H    -0.153199     -0.385658     -0.202492 
 H1319  H     0.174190      0.384159      0.240703 
 H1320  H     0.284151      0.329038     -0.350843 
 H1321  H    -0.210642     -0.368473      0.487404 
 H1322  H     0.139765     -0.219223      0.359980 
 H1323  H    -0.103619      0.223258     -0.308132 
 H1324  H    -0.210446     -0.404790      0.304283 
 H1325  H     0.244171      0.390521     -0.275511 
 H1326  H    -0.193616      0.278392     -0.377071 
 H1327  H     0.247131     -0.284688      0.450809 
 H1328  H     0.107679      0.293041      0.297916 
 H1329  H    -0.099174     -0.300550     -0.243865 
 C1330  C    -0.182680      0.495902     -0.479706 
 C1331  C     0.210071     -0.494187     -0.478781 
 C1332  C     0.012731      0.304687     -0.482570 
 C1333  C     0.008564     -0.303299     -0.481495 
 C1334  C     0.017839     -0.499930      0.319873 
 C1335  C     0.019029     -0.499810     -0.287403 
 C1336  C    -0.210787      0.496011     -0.433425 
 C1337  C     0.237578     -0.491180      0.474649 
 C1338  C     0.058297      0.275663     -0.479299 
 C1339  C    -0.032156     -0.277951     -0.456386 
 C1340  C     0.029357     -0.454321      0.293135 
 C1341  C     0.022748      0.453393     -0.260268 
 C1342  C    -0.208069      0.496413      0.472299 
 C1343  C     0.236039      0.495597     -0.432174 
 C1344  C    -0.035893      0.280576     -0.480885 
 C1345  C     0.048253     -0.273751      0.496053 
 C1346  C     0.012088      0.453235      0.293051 
 C1347  C     0.009430     -0.453336     -0.260872 
 C1348  C    -0.124957      0.494584     -0.477524 
 C1349  C     0.152265     -0.495811     -0.481350 
 C1350  C     0.016927      0.361998     -0.487255 
 C1351  C     0.008699     -0.361372     -0.482649 
 C1352  C     0.013863     -0.497709      0.377484 
 C1353  C     0.016694      0.498128     -0.345202 
 C1354  C    -0.147272     -0.483192      0.345975 
 C1355  C     0.184047      0.474811     -0.300938 
 C1356  C    -0.164119      0.338707     -0.461084 
 C1357  C     0.161822     -0.341536      0.497490 
 C1358  C     0.023900      0.327514      0.355184 
 C1359  C    -0.018629     -0.322852     -0.310954 
 C1360  C    -0.210339     -0.390384     -0.263441 
 C1361  C     0.221891      0.395339      0.308754 
 C1362  C     0.221004      0.274957     -0.360295 
 C1363  C    -0.165323     -0.310595      0.446792 
 C1364  C     0.135008     -0.278666      0.301238 
 C1365  C    -0.093130      0.292338     -0.261651 
 C1366  C    -0.196932     -0.363101     -0.357610 
 C1367  C     0.196501      0.382914      0.404153 
 C1368  C     0.125522      0.292790     -0.340445 
 C1369  C    -0.078422     -0.320601      0.400076 
 C1370  C     0.156791     -0.374756      0.312563 
 C1371  C    -0.108149      0.387259     -0.287609 
 C1372  C    -0.195263     -0.484969      0.380293 
 C1373  C     0.227366      0.473747     -0.341026 
 C1374  C    -0.127286      0.292693     -0.463393 
 C1375  C     0.138897     -0.288796      0.484715 
 C1376  C     0.023621      0.361194      0.306637 
 C1377  C    -0.014583     -0.362661     -0.267592 
 C1378  C    -0.174110     -0.391222     -0.310497 
 C1379  C     0.179075      0.399942      0.349873 
 C1380  C     0.176033      0.313637     -0.363739 
 C1381  C    -0.127483     -0.347664      0.419964 
 C1382  C     0.135242     -0.325502      0.337863 
 C1383  C    -0.090665      0.333101     -0.304995 
 C1384  C    -0.186200     -0.410437     -0.212949 
 C1385  C     0.205385      0.410215      0.253477 
 C1386  C     0.273747      0.296899     -0.376777 
 C1387  C    -0.217321     -0.335449      0.461315 
 C1388  C     0.115935     -0.227938      0.325779 
 C1389  C    -0.077090      0.237277     -0.277887 
 C1390  C    -0.156840     -0.467637      0.289391 
 C1391  C     0.200152      0.455909     -0.246815 
 C1392  C    -0.218873      0.325650     -0.441710 
 C1393  C     0.220593     -0.341901     -0.493799 
 C1394  C     0.043314      0.271724      0.347454 
 C1395  C    -0.039118     -0.269605     -0.293845 
 C1396  C    -0.158937     -0.359269     -0.402831 
 C1397  C     0.153076      0.385156      0.444519 
 C1398  C     0.082978      0.333867     -0.337515 
 C1399  C    -0.039800     -0.357793      0.374866 
 C1400  C     0.161688     -0.420275      0.350213 
 C1401  C    -0.107490      0.427329     -0.331378 
 O1402  O     0.013481     -0.499933     -0.483471 
 O1403  O    -0.177088      0.497233      0.429435 
 O1404  O     0.206978      0.495225     -0.387847 
 O1405  O    -0.078758      0.311651     -0.482303 
 O1406  O     0.086568     -0.297394      0.468593 
 O1407  O     0.001712      0.409882      0.321548 
 O1408  O     0.007704     -0.408577     -0.289231 
 O1409  O    -0.103233     -0.480736     -0.441033 
 O1410  O     0.053629      0.383655     -0.462850 
 O1411  O     0.041192     -0.463790      0.400143 
 O1412  O    -0.102019      0.468417      0.487920 
 O1413  O    -0.015820      0.384480      0.484035 
 O1414  O    -0.016821      0.470958      0.399427 
 O1415  O     0.129055      0.476793     -0.447890 
 O1416  O     0.043621     -0.383638      0.490999 
 O1417  O    -0.008824     -0.466619     -0.367903 
 O1418  O     0.130726     -0.470427      0.482466 
 O1419  O    -0.026428     -0.384306     -0.456967 
 O1420  O     0.039592      0.460584     -0.367217 
 Zn1421  Zn    -0.441675     -0.460362     -0.436958 
 Zn1422  Zn    -0.444605      0.451944      0.477545 
 Zn1423  Zn     0.469741     -0.459337      0.479782 
 Zn1424  Zn     0.470820      0.454060     -0.433513 
 H1425  H     0.310158      0.479893     -0.396345 
 H1426  H    -0.282082      0.495387      0.433149 
 H1427  H    -0.408294      0.291552     -0.480231 
 H1428  H     0.428895     -0.301865     -0.471730 
 H1429  H     0.492868     -0.423228      0.319883 
 H1430  H    -0.495692      0.411503     -0.275785 
 H1431  H     0.374988     -0.453804      0.356900 
 H1432  H    -0.351756      0.454118     -0.322202 
 H1433  H     0.346390      0.361973     -0.427800 
 H1434  H    -0.322336     -0.341898      0.466506 
 H1435  H    -0.443972      0.334838      0.386807 
 H1436  H     0.497549     -0.349038     -0.344397 
 H1437  H     0.360492      0.481755      0.340860 
 H1438  H    -0.339229     -0.481810     -0.303874 
 H1439  H     0.329021      0.345002     -0.491283 
 H1440  H    -0.302361     -0.350492     -0.469038 
 H1441  H     0.493723      0.314940      0.368478 
 H1442  H    -0.440515     -0.328053     -0.326210 
 H1443  H     0.282567     -0.426337     -0.284128 
 H1444  H    -0.247672      0.404009      0.341485 
 H1445  H    -0.285356      0.254545     -0.389433 
 H1446  H     0.313956     -0.381356      0.467956 
 H1447  H    -0.417621     -0.297218      0.295622 
 H1448  H     0.415770      0.296801     -0.214128 
 H1449  H     0.300568     -0.362162     -0.270799 
 H1450  H    -0.281081      0.350950      0.315008 
 H1451  H    -0.272768      0.276995     -0.326568 
 H1452  H     0.326374     -0.320288      0.495257 
 H1453  H    -0.356317     -0.280484      0.319773 
 H1454  H     0.351921      0.283035     -0.232928 
 H1455  H     0.328537     -0.348871     -0.363652 
 H1456  H    -0.283719      0.313707      0.403512 
 H1457  H    -0.367287      0.295677     -0.311530 
 H1458  H     0.415553     -0.321484      0.446111 
 H1459  H    -0.338621     -0.374055      0.345507 
 H1460  H     0.332974      0.373674     -0.254316 
 H1461  H     0.312795     -0.413172     -0.379726 
 H1462  H    -0.257695      0.368393      0.434758 
 H1463  H    -0.383324      0.274537     -0.374196 
 H1464  H     0.398364     -0.382552      0.421619 
 H1465  H    -0.399587     -0.392193      0.321117 
 H1466  H     0.395464      0.395267     -0.238060 
 H1467  H     0.285075     -0.439899      0.389657 
 H1468  H    -0.255224      0.443744     -0.344505 
 H1469  H     0.377014      0.271990     -0.410218 
 H1470  H    -0.350541     -0.249866      0.489152 
 H1471  H    -0.425540      0.364396      0.296025 
 H1472  H     0.479218     -0.376610     -0.252716 
 H1473  H     0.267501      0.496264      0.369665 
 H1474  H    -0.247326     -0.489205     -0.329744 
 H1475  H     0.355525      0.252034     -0.472859 
 H1476  H    -0.337288     -0.264812     -0.444501 
 H1477  H    -0.487651      0.341681      0.275937 
 H1478  H    -0.458656     -0.353392     -0.233608 
 H1479  H     0.392469     -0.382740     -0.297038 
 H1480  H    -0.357763      0.370720      0.370642 
 H1481  H    -0.309282      0.364552     -0.351088 
 H1482  H     0.336984     -0.281967      0.406898 
 H1483  H    -0.382395     -0.312941      0.408032 
 H1484  H     0.373224      0.315778     -0.323462 
 H1485  H     0.373526     -0.446201     -0.312717 
 H1486  H    -0.325727      0.424506      0.396949 
 H1487  H    -0.324428      0.340496     -0.412809 
 H1488  H     0.320363     -0.341609      0.378463 
 H1489  H    -0.442896     -0.331626      0.383274 
 H1490  H     0.434646      0.334557     -0.301094 
 H1491  H     0.420341     -0.362849     -0.392101 
 H1492  H    -0.366456      0.324244      0.454909 
 H1493  H    -0.406920      0.382670     -0.329304 
 H1494  H     0.424165     -0.287422      0.354536 
 H1495  H    -0.361824     -0.410517      0.433034 
 H1496  H     0.344729      0.407373     -0.345563 
 H1497  H     0.377200     -0.379743     -0.442774 
 H1498  H    -0.311769      0.314098      0.495270 
 H1499  H    -0.452491      0.332921     -0.341526 
 H1500  H     0.466510     -0.340097      0.367457 
 H1501  H    -0.369801     -0.458195      0.384436 
 H1502  H     0.351969      0.457291     -0.299157 
 H1503  H     0.407047     -0.428682     -0.405232 
 H1504  H    -0.338331      0.376975      0.488564 
 H1505  H    -0.420662      0.364006     -0.393727 
 H1506  H     0.409471     -0.350342      0.330977 
 H1507  H    -0.424400     -0.425883      0.410400 
 H1508  H     0.407218      0.429744     -0.328775 
 H1509  H     0.383335     -0.479992     -0.232260 
 H1510  H    -0.237516      0.444207      0.253886 
 H1511  H    -0.243659      0.359793     -0.447668 
 H1512  H     0.232211     -0.381080     -0.481775 
 H1513  H    -0.483448     -0.253653      0.393262 
 H1514  H     0.468763      0.252597     -0.321184 
 H1515  H     0.298603     -0.489619      0.273089 
 H1516  H    -0.279420      0.485922     -0.233452 
 H1517  H     0.260361      0.286018     -0.459006 
 H1518  H    -0.261152     -0.264307      0.460113 
 H1519  H    -0.469772      0.246745      0.311376 
 H1520  H    -0.479288     -0.260461     -0.268655 
 H1521  H     0.361011     -0.391589     -0.201966 
 H1522  H    -0.316602      0.464035      0.305879 
 H1523  H    -0.210519      0.342022     -0.359900 
 H1524  H     0.235250     -0.346144      0.423896 
 H1525  H    -0.395901     -0.216703      0.380375 
 H1526  H     0.382351      0.220080     -0.298474 
 H1527  H     0.275028     -0.402312      0.314739 
 H1528  H    -0.262181      0.395841     -0.272442 
 H1529  H     0.303024      0.266714     -0.370379 
 H1530  H    -0.235359     -0.351568      0.426243 
 H1531  H    -0.381680      0.291655      0.294377 
 H1532  H     0.432580     -0.303673     -0.254542 
 C1533  C     0.317201      0.490765     -0.479015 
 C1534  C    -0.290302      0.495178     -0.483289 
 C1535  C    -0.491474      0.299526     -0.476771 
 C1536  C    -0.487593     -0.306427     -0.474029 
 C1537  C    -0.496650      0.493938      0.325635 
 C1538  C    -0.476683      0.493124     -0.282374 
 C1539  C     0.289645      0.487498     -0.432524 
 C1540  C    -0.262186      0.495511      0.470426 
 C1541  C    -0.445135      0.271587     -0.475174 
 C1542  C     0.465193     -0.280302     -0.469991 
 C1543  C    -0.498779     -0.459009      0.298935 
 C1544  C    -0.487236      0.447457     -0.255206 
 C1545  C     0.291207     -0.499356      0.474315 
 C1546  C    -0.264940      0.494987     -0.435209 
 C1547  C     0.461224      0.274286     -0.468088 
 C1548  C    -0.440695     -0.279218     -0.471788 
 C1549  C    -0.486223      0.447815      0.299004 
 C1550  C    -0.467589     -0.460492     -0.255633 
 C1551  C    -0.347939      0.497763     -0.485545 
 C1552  C     0.374884      0.494472     -0.475933 
 C1553  C    -0.488232     -0.364168     -0.474952 
 C1554  C    -0.488678      0.357394     -0.477803 
 C1555  C    -0.478618      0.492286     -0.340111 
 C1556  C    -0.493580      0.495819      0.383432 
 C1557  C     0.343611     -0.479155      0.343052 
 C1558  C    -0.321715      0.479324     -0.305546 
 C1559  C     0.331342      0.329870     -0.451489 
 C1560  C    -0.307521     -0.321067     -0.499489 
 C1561  C    -0.466235      0.318542      0.354281 
 C1562  C    -0.480569     -0.331920     -0.312078 
 C1563  C     0.315160     -0.402190     -0.271193 
 C1564  C    -0.286561      0.389934      0.331318 
 C1565  C    -0.275520      0.289509     -0.367204 
 C1566  C     0.309349     -0.339504      0.461332 
 C1567  C    -0.397298     -0.284346      0.330767 
 C1568  C     0.391841      0.285748     -0.247582 
 C1569  C     0.344298     -0.388408     -0.365296 
 C1570  C    -0.294175      0.350843      0.421463 
 C1571  C    -0.371934      0.308897     -0.351755 
 C1572  C     0.396174     -0.340782      0.413620 
 C1573  C    -0.379547     -0.378890      0.356274 
 C1574  C     0.371853      0.380297     -0.270219 
 C1575  C     0.299832     -0.479246      0.382685 
 C1576  C    -0.275355      0.481212     -0.342139 
 C1577  C     0.369757      0.285111     -0.450103 
 C1578  C    -0.347521     -0.281426     -0.482328 
 C1579  C    -0.465287      0.356445      0.309045 
 C1580  C    -0.481096     -0.369037     -0.266253 
 C1581  C     0.359540     -0.406027     -0.310625 
 C1582  C    -0.319205      0.385763      0.380553 
 C1583  C    -0.319761      0.329069     -0.372066 
 C1584  C     0.339260     -0.324160      0.412352 
 C1585  C    -0.402001     -0.326302      0.372719 
 C1586  C     0.394313      0.328537     -0.288787 
 C1587  C     0.330081     -0.417490     -0.215636 
 C1588  C    -0.310162      0.425112      0.289776 
 C1589  C    -0.222014      0.309212     -0.384527 
 C1590  C     0.251594     -0.326446      0.457909 
 C1591  C    -0.417808     -0.230718      0.346630 
 C1592  C     0.408412      0.232018     -0.266979 
 C1593  C     0.327349     -0.462217      0.288317 
 C1594  C    -0.309820      0.461250     -0.250039 
 C1595  C     0.276501      0.315719     -0.433187 
 C1596  C    -0.255001     -0.297047      0.486680 
 C1597  C    -0.445584      0.264225      0.341635 
 C1598  C     0.498024     -0.277661     -0.300241 
 C1599  C     0.389643     -0.389937     -0.403425 
 C1600  C    -0.329582      0.340982      0.467740 
 C1601  C    -0.415345      0.349288     -0.354197 
 C1602  C     0.425695     -0.328866      0.363762 
 C1603  C    -0.384036     -0.420581      0.398258 
 C1604  C     0.368713      0.420921     -0.313227 
 O1605  O    -0.486520      0.496284     -0.478485 
 O1606  O     0.320479     -0.499082      0.430105 
 O1607  O    -0.295684      0.494189     -0.392046 
 O1608  O     0.417239      0.303574     -0.471762 
 O1609  O    -0.396210     -0.307379     -0.477740 
 O1610  O    -0.488007      0.403321      0.327636 
 O1611  O    -0.458290     -0.416528     -0.283502 
 O1612  O    -0.370718      0.470862      0.480178 
 O1613  O     0.476762     -0.385850      0.498227 
 O1614  O     0.492822      0.458256     -0.361037 
 O1615  O    -0.369701     -0.472617     -0.453155 
 O1616  O    -0.454398     -0.387208     -0.447997 
 O1617  O    -0.451328     -0.474721     -0.363947 
 O1618  O     0.397501     -0.477710      0.490529 
 O1619  O     0.477538      0.381565     -0.451708 
 O1620  O    -0.466796      0.461305      0.405953 
 O1621  O     0.396838      0.470549     -0.439007 
 O1622  O    -0.452240      0.378063      0.496346 
 O1623  O     0.482782     -0.467205      0.405564 
loop_  
_geom_bond_atom_site_label_1  
_geom_bond_atom_site_label_2  
Zn0   O184 
Zn0   O194 
Zn0   O195 
Zn0   O196 
Zn1   O184 
Zn1   O191 
Zn1   O199 
Zn1   O201 
Zn2   O184 
Zn2   O192 
Zn2   O197 
Zn2   O202 
Zn3   O184 
Zn3   O193 
Zn3   O198 
Zn3   O200 
H4   C118 
H5   C119 
H6   C120 
H7   C121 
H8   C122 
H9   C123 
H10   C136 
H11   C137 
H12   C138 
H13   C139 
H14   C140 
H15   C141 
H16   C136 
H17   C137 
H18   C138 
H19   C139 
H20   C140 
H21   C141 
H22   C142 
H23   C143 
H24   C144 
H25   C145 
H26   C146 
H27   C147 
H28   C142 
H29   C143 
H30   C144 
H31   C145 
H32   C146 
H33   C147 
H34   C148 
H35   C149 
H36   C150 
H37   C151 
H38   C152 
H39   C153 
H40   C148 
H41   C149 
H42   C150 
H43   C151 
H44   C152 
H45   C153 
H46   C154 
H47   C155 
H48   C156 
H49   C157 
H50   C158 
H51   C159 
H52   C154 
H53   C155 
H54   C156 
H55   C157 
H56   C158 
H57   C159 
H58   C160 
H59   C161 
H60   C162 
H61   C163 
H62   C164 
H63   C165 
H64   C160 
H65   C161 
H66   C162 
H67   C163 
H68   C164 
H69   C165 
H70   C178 
H71   C179 
H72   C180 
H73   C181 
H74   C182 
H75   C183 
H76   C178 
H77   C179 
H78   C180 
H79   C181 
H80   C182 
H81   C183 
H82   C178 
H83   C179 
H84   C180 
H85   C181 
H86   C182 
H87   C183 
H88   C984 
H89   C985 
H90   C377 
H91   C378 
H92   C582 
H93   C583 
H94   C172 
H95   C173 
H96   C174 
H97   C175 
H98   C176 
H99   C177 
H100   C166 
H101   C167 
H102   C168 
H103   C169 
H104   C170 
H105   C171 
H106   C978 
H107   C979 
H108   C371 
H109   C372 
H110   C576 
H111   C577 
C112   C118 
C112   C124 
C112   C130 
C113   C119 
C113   C125 
C113   C131 
C114   C120 
C114   C126 
C114   C132 
C115   C121 
C115   C127 
C115   C133 
C116   C122 
C116   C128 
C116   C134 
C117   C123 
C117   C129 
C117   C135 
C118   C328 
C119   C327 
C120   C533 
C121   C532 
C122   C941 
C123   C940 
C124   O185 
C124   C322 
C125   O186 
C125   C321 
C126   O187 
C126   C527 
C127   O188 
C127   C526 
C128   O189 
C128   C935 
C129   O190 
C129   C934 
C130   O191 
C130   O194 
C131   O197 
C131   O200 
C132   O192 
C132   O195 
C133   O198 
C133   O201 
C134   O193 
C134   O196 
C135   O199 
C135   O202 
C136   C154 
C136   C172 
C137   C155 
C137   C173 
C138   C156 
C138   C174 
C139   C157 
C139   C175 
C140   C158 
C140   C176 
C141   C159 
C141   C177 
C142   C160 
C142   C166 
C143   C161 
C143   C167 
C144   C162 
C144   C168 
C145   C163 
C145   C169 
C146   C164 
C146   C170 
C147   C165 
C147   C171 
C148   C160 
C148   C178 
C149   C161 
C149   C179 
C150   C162 
C150   C180 
C151   C163 
C151   C181 
C152   C164 
C152   C182 
C153   C165 
C153   C183 
C154   O185 
C155   O186 
C156   O187 
C157   O188 
C158   O189 
C159   O190 
C166   H918 
C166   C984 
C167   H919 
C167   C985 
C168   H311 
C168   C377 
C169   H312 
C169   C378 
C170   H516 
C170   C582 
C171   H517 
C171   C583 
C172   H900 
C172   C978 
C173   H901 
C173   C979 
C174   H293 
C174   C371 
C175   H294 
C175   C372 
C176   H498 
C176   C576 
C177   H499 
C177   C577 
Zn203   O387 
Zn203   O397 
Zn203   O398 
Zn203   O399 
Zn204   O387 
Zn204   O394 
Zn204   O402 
Zn204   O404 
Zn205   O387 
Zn205   O395 
Zn205   O400 
Zn205   O405 
Zn206   O387 
Zn206   O396 
Zn206   O401 
Zn206   O403 
H207   C321 
H208   C322 
H209   C323 
H210   C324 
H211   C325 
H212   C326 
H213   C339 
H214   C340 
H215   C341 
H216   C342 
H217   C343 
H218   C344 
H219   C339 
H220   C340 
H221   C341 
H222   C342 
H223   C343 
H224   C344 
H225   C345 
H226   C346 
H227   C347 
H228   C348 
H229   C349 
H230   C350 
H231   C345 
H232   C346 
H233   C347 
H234   C348 
H235   C349 
H236   C350 
H237   C351 
H238   C352 
H239   C353 
H240   C354 
H241   C355 
H242   C356 
H243   C351 
H244   C352 
H245   C353 
H246   C354 
H247   C355 
H248   C356 
H249   C357 
H250   C358 
H251   C359 
H252   C360 
H253   C361 
H254   C362 
H255   C357 
H256   C358 
H257   C359 
H258   C360 
H259   C361 
H260   C362 
H261   C363 
H262   C364 
H263   C365 
H264   C366 
H265   C367 
H266   C368 
H267   C363 
H268   C364 
H269   C365 
H270   C366 
H271   C367 
H272   C368 
H273   C381 
H274   C382 
H275   C383 
H276   C384 
H277   C385 
H278   C386 
H279   C381 
H280   C382 
H281   C383 
H282   C384 
H283   C385 
H284   C386 
H285   C381 
H286   C382 
H287   C383 
H288   C384 
H289   C385 
H290   C386 
H291   C1187 
H292   C1188 
H295   C785 
H296   C786 
H297   C375 
H298   C376 
H299   C377 
H300   C378 
H301   C379 
H302   C380 
H303   C369 
H304   C370 
H305   C371 
H306   C372 
H307   C373 
H308   C374 
H309   C1181 
H310   C1182 
H313   C779 
H314   C780 
C315   C321 
C315   C327 
C315   C334 
C316   C322 
C316   C328 
C316   C333 
C317   C323 
C317   C329 
C317   C336 
C318   C324 
C318   C330 
C318   C335 
C319   C325 
C319   C331 
C319   C338 
C320   C326 
C320   C332 
C320   C337 
C323   C736 
C324   C735 
C325   C1144 
C326   C1143 
C327   O388 
C328   O389 
C329   O390 
C329   C730 
C330   O391 
C330   C729 
C331   O392 
C331   C1138 
C332   O393 
C332   C1137 
C333   O394 
C333   O397 
C334   O400 
C334   O403 
C335   O395 
C335   O398 
C336   O401 
C336   O404 
C337   O396 
C337   O399 
C338   O402 
C338   O405 
C339   C357 
C339   C375 
C340   C358 
C340   C376 
C341   C359 
C341   C377 
C342   C360 
C342   C378 
C343   C361 
C343   C379 
C344   C362 
C344   C380 
C345   C363 
C345   C369 
C346   C364 
C346   C370 
C347   C365 
C347   C371 
C348   C366 
C348   C372 
C349   C367 
C349   C373 
C350   C368 
C350   C374 
C351   C363 
C351   C381 
C352   C364 
C352   C382 
C353   C365 
C353   C383 
C354   C366 
C354   C384 
C355   C367 
C355   C385 
C356   C368 
C356   C386 
C357   O388 
C358   O389 
C359   O390 
C360   O391 
C361   O392 
C362   O393 
C369   H1121 
C369   C1187 
C370   H1122 
C370   C1188 
C373   H719 
C373   C785 
C374   H720 
C374   C786 
C375   H1103 
C375   C1181 
C376   H1104 
C376   C1182 
C379   H701 
C379   C779 
C380   H702 
C380   C780 
Zn406   O590 
Zn406   O600 
Zn406   O601 
Zn406   O602 
Zn407   O590 
Zn407   O597 
Zn407   O605 
Zn407   O607 
Zn408   O590 
Zn408   O598 
Zn408   O603 
Zn408   O608 
Zn409   O590 
Zn409   O599 
Zn409   O604 
Zn409   O606 
H410   C524 
H411   C525 
H412   C526 
H413   C527 
H414   C528 
H415   C529 
H416   C542 
H417   C543 
H418   C544 
H419   C545 
H420   C546 
H421   C547 
H422   C542 
H423   C543 
H424   C544 
H425   C545 
H426   C546 
H427   C547 
H428   C548 
H429   C549 
H430   C550 
H431   C551 
H432   C552 
H433   C553 
H434   C548 
H435   C549 
H436   C550 
H437   C551 
H438   C552 
H439   C553 
H440   C554 
H441   C555 
H442   C556 
H443   C557 
H444   C558 
H445   C559 
H446   C554 
H447   C555 
H448   C556 
H449   C557 
H450   C558 
H451   C559 
H452   C560 
H453   C561 
H454   C562 
H455   C563 
H456   C564 
H457   C565 
H458   C560 
H459   C561 
H460   C562 
H461   C563 
H462   C564 
H463   C565 
H464   C566 
H465   C567 
H466   C568 
H467   C569 
H468   C570 
H469   C571 
H470   C566 
H471   C567 
H472   C568 
H473   C569 
H474   C570 
H475   C571 
H476   C584 
H477   C585 
H478   C586 
H479   C587 
H480   C588 
H481   C589 
H482   C584 
H483   C585 
H484   C586 
H485   C587 
H486   C588 
H487   C589 
H488   C584 
H489   C585 
H490   C586 
H491   C587 
H492   C588 
H493   C589 
H494   C1390 
H495   C1391 
H496   C783 
H497   C784 
H500   C578 
H501   C579 
H502   C580 
H503   C581 
H504   C582 
H505   C583 
H506   C572 
H507   C573 
H508   C574 
H509   C575 
H510   C576 
H511   C577 
H512   C1384 
H513   C1385 
H514   C777 
H515   C778 
C518   C524 
C518   C530 
C518   C537 
C519   C525 
C519   C531 
C519   C536 
C520   C526 
C520   C532 
C520   C539 
C521   C527 
C521   C533 
C521   C538 
C522   C528 
C522   C534 
C522   C541 
C523   C529 
C523   C535 
C523   C540 
C524   C734 
C525   C733 
C528   C1347 
C529   C1346 
C530   O591 
C530   C728 
C531   O592 
C531   C727 
C532   O593 
C533   O594 
C534   O595 
C534   C1341 
C535   O596 
C535   C1340 
C536   O597 
C536   O600 
C537   O603 
C537   O606 
C538   O598 
C538   O601 
C539   O604 
C539   O607 
C540   O599 
C540   O602 
C541   O605 
C541   O608 
C542   C560 
C542   C578 
C543   C561 
C543   C579 
C544   C562 
C544   C580 
C545   C563 
C545   C581 
C546   C564 
C546   C582 
C547   C565 
C547   C583 
C548   C566 
C548   C572 
C549   C567 
C549   C573 
C550   C568 
C550   C574 
C551   C569 
C551   C575 
C552   C570 
C552   C576 
C553   C571 
C553   C577 
C554   C566 
C554   C584 
C555   C567 
C555   C585 
C556   C568 
C556   C586 
C557   C569 
C557   C587 
C558   C570 
C558   C588 
C559   C571 
C559   C589 
C560   O591 
C561   O592 
C562   O593 
C563   O594 
C564   O595 
C565   O596 
C572   H1324 
C572   C1390 
C573   H1325 
C573   C1391 
C574   H717 
C574   C783 
C575   H718 
C575   C784 
C578   H1306 
C578   C1384 
C579   H1307 
C579   C1385 
C580   H699 
C580   C777 
C581   H700 
C581   C778 
Zn609   O793 
Zn609   O803 
Zn609   O804 
Zn609   O805 
Zn610   O793 
Zn610   O800 
Zn610   O808 
Zn610   O810 
Zn611   O793 
Zn611   O801 
Zn611   O806 
Zn611   O811 
Zn612   O793 
Zn612   O802 
Zn612   O807 
Zn612   O809 
H613   C727 
H614   C728 
H615   C729 
H616   C730 
H617   C731 
H618   C732 
H619   C745 
H620   C746 
H621   C747 
H622   C748 
H623   C749 
H624   C750 
H625   C745 
H626   C746 
H627   C747 
H628   C748 
H629   C749 
H630   C750 
H631   C751 
H632   C752 
H633   C753 
H634   C754 
H635   C755 
H636   C756 
H637   C751 
H638   C752 
H639   C753 
H640   C754 
H641   C755 
H642   C756 
H643   C757 
H644   C758 
H645   C759 
H646   C760 
H647   C761 
H648   C762 
H649   C757 
H650   C758 
H651   C759 
H652   C760 
H653   C761 
H654   C762 
H655   C763 
H656   C764 
H657   C765 
H658   C766 
H659   C767 
H660   C768 
H661   C763 
H662   C764 
H663   C765 
H664   C766 
H665   C767 
H666   C768 
H667   C769 
H668   C770 
H669   C771 
H670   C772 
H671   C773 
H672   C774 
H673   C769 
H674   C770 
H675   C771 
H676   C772 
H677   C773 
H678   C774 
H679   C787 
H680   C788 
H681   C789 
H682   C790 
H683   C791 
H684   C792 
H685   C787 
H686   C788 
H687   C789 
H688   C790 
H689   C791 
H690   C792 
H691   C787 
H692   C788 
H693   C789 
H694   C790 
H695   C791 
H696   C792 
H697   C1593 
H698   C1594 
H703   C781 
H704   C782 
H705   C783 
H706   C784 
H707   C785 
H708   C786 
H709   C775 
H710   C776 
H711   C777 
H712   C778 
H713   C779 
H714   C780 
H715   C1587 
H716   C1588 
C721   C727 
C721   C733 
C721   C739 
C722   C728 
C722   C734 
C722   C740 
C723   C729 
C723   C735 
C723   C741 
C724   C730 
C724   C736 
C724   C742 
C725   C731 
C725   C737 
C725   C743 
C726   C732 
C726   C738 
C726   C744 
C731   C1550 
C732   C1549 
C733   O794 
C734   O795 
C735   O796 
C736   O797 
C737   O798 
C737   C1544 
C738   O799 
C738   C1543 
C739   O800 
C739   O803 
C740   O806 
C740   O809 
C741   O801 
C741   O804 
C742   O807 
C742   O810 
C743   O802 
C743   O805 
C744   O808 
C744   O811 
C745   C763 
C745   C781 
C746   C764 
C746   C782 
C747   C765 
C747   C783 
C748   C766 
C748   C784 
C749   C767 
C749   C785 
C750   C768 
C750   C786 
C751   C769 
C751   C775 
C752   C770 
C752   C776 
C753   C771 
C753   C777 
C754   C772 
C754   C778 
C755   C773 
C755   C779 
C756   C774 
C756   C780 
C757   C769 
C757   C787 
C758   C770 
C758   C788 
C759   C771 
C759   C789 
C760   C772 
C760   C790 
C761   C773 
C761   C791 
C762   C774 
C762   C792 
C763   O794 
C764   O795 
C765   O796 
C766   O797 
C767   O798 
C768   O799 
C775   H1527 
C775   C1593 
C776   H1528 
C776   C1594 
C781   H1509 
C781   C1587 
C782   H1510 
C782   C1588 
Zn812   O996 
Zn812   O1006 
Zn812   O1007 
Zn812   O1008 
Zn813   O996 
Zn813   O1003 
Zn813   O1011 
Zn813   O1013 
Zn814   O996 
Zn814   O1004 
Zn814   O1009 
Zn814   O1014 
Zn815   O996 
Zn815   O1005 
Zn815   O1010 
Zn815   O1012 
H816   C930 
H817   C931 
H818   C932 
H819   C933 
H820   C934 
H821   C935 
H822   C948 
H823   C949 
H824   C950 
H825   C951 
H826   C952 
H827   C953 
H828   C948 
H829   C949 
H830   C950 
H831   C951 
H832   C952 
H833   C953 
H834   C954 
H835   C955 
H836   C956 
H837   C957 
H838   C958 
H839   C959 
H840   C954 
H841   C955 
H842   C956 
H843   C957 
H844   C958 
H845   C959 
H846   C960 
H847   C961 
H848   C962 
H849   C963 
H850   C964 
H851   C965 
H852   C960 
H853   C961 
H854   C962 
H855   C963 
H856   C964 
H857   C965 
H858   C966 
H859   C967 
H860   C968 
H861   C969 
H862   C970 
H863   C971 
H864   C966 
H865   C967 
H866   C968 
H867   C969 
H868   C970 
H869   C971 
H870   C972 
H871   C973 
H872   C974 
H873   C975 
H874   C976 
H875   C977 
H876   C972 
H877   C973 
H878   C974 
H879   C975 
H880   C976 
H881   C977 
H882   C990 
H883   C991 
H884   C992 
H885   C993 
H886   C994 
H887   C995 
H888   C990 
H889   C991 
H890   C992 
H891   C993 
H892   C994 
H893   C995 
H894   C990 
H895   C991 
H896   C992 
H897   C993 
H898   C994 
H899   C995 
H902   C1189 
H903   C1190 
H904   C1394 
H905   C1395 
H906   C984 
H907   C985 
H908   C986 
H909   C987 
H910   C988 
H911   C989 
H912   C978 
H913   C979 
H914   C980 
H915   C981 
H916   C982 
H917   C983 
H920   C1183 
H921   C1184 
H922   C1388 
H923   C1389 
C924   C930 
C924   C936 
C924   C943 
C925   C931 
C925   C937 
C925   C942 
C926   C932 
C926   C938 
C926   C945 
C927   C933 
C927   C939 
C927   C944 
C928   C934 
C928   C940 
C928   C947 
C929   C935 
C929   C941 
C929   C946 
C930   C1140 
C931   C1139 
C932   C1345 
C933   C1344 
C936   O997 
C936   C1134 
C937   O998 
C937   C1133 
C938   O999 
C938   C1339 
C939   O1000 
C939   C1338 
C940   O1001 
C941   O1002 
C942   O1003 
C942   O1006 
C943   O1009 
C943   O1012 
C944   O1004 
C944   O1007 
C945   O1010 
C945   O1013 
C946   O1005 
C946   O1008 
C947   O1011 
C947   O1014 
C948   C966 
C948   C984 
C949   C967 
C949   C985 
C950   C968 
C950   C986 
C951   C969 
C951   C987 
C952   C970 
C952   C988 
C953   C971 
C953   C989 
C954   C972 
C954   C978 
C955   C973 
C955   C979 
C956   C974 
C956   C980 
C957   C975 
C957   C981 
C958   C976 
C958   C982 
C959   C977 
C959   C983 
C960   C972 
C960   C990 
C961   C973 
C961   C991 
C962   C974 
C962   C992 
C963   C975 
C963   C993 
C964   C976 
C964   C994 
C965   C977 
C965   C995 
C966   O997 
C967   O998 
C968   O999 
C969   O1000 
C970   O1001 
C971   O1002 
C980   H1123 
C980   C1189 
C981   H1124 
C981   C1190 
C982   H1328 
C982   C1394 
C983   H1329 
C983   C1395 
C986   H1105 
C986   C1183 
C987   H1106 
C987   C1184 
C988   H1310 
C988   C1388 
C989   H1311 
C989   C1389 
Zn1015   O1199 
Zn1015   O1209 
Zn1015   O1210 
Zn1015   O1211 
Zn1016   O1199 
Zn1016   O1206 
Zn1016   O1214 
Zn1016   O1216 
Zn1017   O1199 
Zn1017   O1207 
Zn1017   O1212 
Zn1017   O1217 
Zn1018   O1199 
Zn1018   O1208 
Zn1018   O1213 
Zn1018   O1215 
H1019   C1133 
H1020   C1134 
H1021   C1135 
H1022   C1136 
H1023   C1137 
H1024   C1138 
H1025   C1151 
H1026   C1152 
H1027   C1153 
H1028   C1154 
H1029   C1155 
H1030   C1156 
H1031   C1151 
H1032   C1152 
H1033   C1153 
H1034   C1154 
H1035   C1155 
H1036   C1156 
H1037   C1157 
H1038   C1158 
H1039   C1159 
H1040   C1160 
H1041   C1161 
H1042   C1162 
H1043   C1157 
H1044   C1158 
H1045   C1159 
H1046   C1160 
H1047   C1161 
H1048   C1162 
H1049   C1163 
H1050   C1164 
H1051   C1165 
H1052   C1166 
H1053   C1167 
H1054   C1168 
H1055   C1163 
H1056   C1164 
H1057   C1165 
H1058   C1166 
H1059   C1167 
H1060   C1168 
H1061   C1169 
H1062   C1170 
H1063   C1171 
H1064   C1172 
H1065   C1173 
H1066   C1174 
H1067   C1169 
H1068   C1170 
H1069   C1171 
H1070   C1172 
H1071   C1173 
H1072   C1174 
H1073   C1175 
H1074   C1176 
H1075   C1177 
H1076   C1178 
H1077   C1179 
H1078   C1180 
H1079   C1175 
H1080   C1176 
H1081   C1177 
H1082   C1178 
H1083   C1179 
H1084   C1180 
H1085   C1193 
H1086   C1194 
H1087   C1195 
H1088   C1196 
H1089   C1197 
H1090   C1198 
H1091   C1193 
H1092   C1194 
H1093   C1195 
H1094   C1196 
H1095   C1197 
H1096   C1198 
H1097   C1193 
H1098   C1194 
H1099   C1195 
H1100   C1196 
H1101   C1197 
H1102   C1198 
H1107   C1597 
H1108   C1598 
H1109   C1187 
H1110   C1188 
H1111   C1189 
H1112   C1190 
H1113   C1191 
H1114   C1192 
H1115   C1181 
H1116   C1182 
H1117   C1183 
H1118   C1184 
H1119   C1185 
H1120   C1186 
H1125   C1591 
H1126   C1592 
C1127   C1133 
C1127   C1139 
C1127   C1145 
C1128   C1134 
C1128   C1140 
C1128   C1146 
C1129   C1135 
C1129   C1141 
C1129   C1147 
C1130   C1136 
C1130   C1142 
C1130   C1148 
C1131   C1137 
C1131   C1143 
C1131   C1149 
C1132   C1138 
C1132   C1144 
C1132   C1150 
C1135   C1548 
C1136   C1547 
C1139   O1200 
C1140   O1201 
C1141   O1202 
C1141   C1542 
C1142   O1203 
C1142   C1541 
C1143   O1204 
C1144   O1205 
C1145   O1206 
C1145   O1209 
C1146   O1212 
C1146   O1215 
C1147   O1207 
C1147   O1210 
C1148   O1213 
C1148   O1216 
C1149   O1208 
C1149   O1211 
C1150   O1214 
C1150   O1217 
C1151   C1169 
C1151   C1187 
C1152   C1170 
C1152   C1188 
C1153   C1171 
C1153   C1189 
C1154   C1172 
C1154   C1190 
C1155   C1173 
C1155   C1191 
C1156   C1174 
C1156   C1192 
C1157   C1175 
C1157   C1181 
C1158   C1176 
C1158   C1182 
C1159   C1177 
C1159   C1183 
C1160   C1178 
C1160   C1184 
C1161   C1179 
C1161   C1185 
C1162   C1180 
C1162   C1186 
C1163   C1175 
C1163   C1193 
C1164   C1176 
C1164   C1194 
C1165   C1177 
C1165   C1195 
C1166   C1178 
C1166   C1196 
C1167   C1179 
C1167   C1197 
C1168   C1180 
C1168   C1198 
C1169   O1200 
C1170   O1201 
C1171   O1202 
C1172   O1203 
C1173   O1204 
C1174   O1205 
C1185   H1531 
C1185   C1597 
C1186   H1532 
C1186   C1598 
C1191   H1513 
C1191   C1591 
C1192   H1514 
C1192   C1592 
Zn1218   O1402 
Zn1218   O1412 
Zn1218   O1413 
Zn1218   O1414 
Zn1219   O1402 
Zn1219   O1409 
Zn1219   O1417 
Zn1219   O1419 
Zn1220   O1402 
Zn1220   O1410 
Zn1220   O1415 
Zn1220   O1420 
Zn1221   O1402 
Zn1221   O1411 
Zn1221   O1416 
Zn1221   O1418 
H1222   C1336 
H1223   C1337 
H1224   C1338 
H1225   C1339 
H1226   C1340 
H1227   C1341 
H1228   C1354 
H1229   C1355 
H1230   C1356 
H1231   C1357 
H1232   C1358 
H1233   C1359 
H1234   C1354 
H1235   C1355 
H1236   C1356 
H1237   C1357 
H1238   C1358 
H1239   C1359 
H1240   C1360 
H1241   C1361 
H1242   C1362 
H1243   C1363 
H1244   C1364 
H1245   C1365 
H1246   C1360 
H1247   C1361 
H1248   C1362 
H1249   C1363 
H1250   C1364 
H1251   C1365 
H1252   C1366 
H1253   C1367 
H1254   C1368 
H1255   C1369 
H1256   C1370 
H1257   C1371 
H1258   C1366 
H1259   C1367 
H1260   C1368 
H1261   C1369 
H1262   C1370 
H1263   C1371 
H1264   C1372 
H1265   C1373 
H1266   C1374 
H1267   C1375 
H1268   C1376 
H1269   C1377 
H1270   C1372 
H1271   C1373 
H1272   C1374 
H1273   C1375 
H1274   C1376 
H1275   C1377 
H1276   C1378 
H1277   C1379 
H1278   C1380 
H1279   C1381 
H1280   C1382 
H1281   C1383 
H1282   C1378 
H1283   C1379 
H1284   C1380 
H1285   C1381 
H1286   C1382 
H1287   C1383 
H1288   C1396 
H1289   C1397 
H1290   C1398 
H1291   C1399 
H1292   C1400 
H1293   C1401 
H1294   C1396 
H1295   C1397 
H1296   C1398 
H1297   C1399 
H1298   C1400 
H1299   C1401 
H1300   C1396 
H1301   C1397 
H1302   C1398 
H1303   C1399 
H1304   C1400 
H1305   C1401 
H1308   C1595 
H1309   C1596 
H1312   C1390 
H1313   C1391 
H1314   C1392 
H1315   C1393 
H1316   C1394 
H1317   C1395 
H1318   C1384 
H1319   C1385 
H1320   C1386 
H1321   C1387 
H1322   C1388 
H1323   C1389 
H1326   C1589 
H1327   C1590 
C1330   C1336 
C1330   C1342 
C1330   C1348 
C1331   C1337 
C1331   C1343 
C1331   C1349 
C1332   C1338 
C1332   C1344 
C1332   C1350 
C1333   C1339 
C1333   C1345 
C1333   C1351 
C1334   C1340 
C1334   C1346 
C1334   C1352 
C1335   C1341 
C1335   C1347 
C1335   C1353 
C1336   C1546 
C1337   C1545 
C1342   O1403 
C1342   C1540 
C1343   O1404 
C1343   C1539 
C1344   O1405 
C1345   O1406 
C1346   O1407 
C1347   O1408 
C1348   O1409 
C1348   O1412 
C1349   O1415 
C1349   O1418 
C1350   O1410 
C1350   O1413 
C1351   O1416 
C1351   O1419 
C1352   O1411 
C1352   O1414 
C1353   O1417 
C1353   O1420 
C1354   C1372 
C1354   C1390 
C1355   C1373 
C1355   C1391 
C1356   C1374 
C1356   C1392 
C1357   C1375 
C1357   C1393 
C1358   C1376 
C1358   C1394 
C1359   C1377 
C1359   C1395 
C1360   C1378 
C1360   C1384 
C1361   C1379 
C1361   C1385 
C1362   C1380 
C1362   C1386 
C1363   C1381 
C1363   C1387 
C1364   C1382 
C1364   C1388 
C1365   C1383 
C1365   C1389 
C1366   C1378 
C1366   C1396 
C1367   C1379 
C1367   C1397 
C1368   C1380 
C1368   C1398 
C1369   C1381 
C1369   C1399 
C1370   C1382 
C1370   C1400 
C1371   C1383 
C1371   C1401 
C1372   O1403 
C1373   O1404 
C1374   O1405 
C1375   O1406 
C1376   O1407 
C1377   O1408 
C1386   H1529 
C1386   C1595 
C1387   H1530 
C1387   C1596 
C1392   H1511 
C1392   C1589 
C1393   H1512 
C1393   C1590 
Zn1421   O1605 
Zn1421   O1615 
Zn1421   O1616 
Zn1421   O1617 
Zn1422   O1605 
Zn1422   O1612 
Zn1422   O1620 
Zn1422   O1622 
Zn1423   O1605 
Zn1423   O1613 
Zn1423   O1618 
Zn1423   O1623 
Zn1424   O1605 
Zn1424   O1614 
Zn1424   O1619 
Zn1424   O1621 
H1425   C1539 
H1426   C1540 
H1427   C1541 
H1428   C1542 
H1429   C1543 
H1430   C1544 
H1431   C1557 
H1432   C1558 
H1433   C1559 
H1434   C1560 
H1435   C1561 
H1436   C1562 
H1437   C1557 
H1438   C1558 
H1439   C1559 
H1440   C1560 
H1441   C1561 
H1442   C1562 
H1443   C1563 
H1444   C1564 
H1445   C1565 
H1446   C1566 
H1447   C1567 
H1448   C1568 
H1449   C1563 
H1450   C1564 
H1451   C1565 
H1452   C1566 
H1453   C1567 
H1454   C1568 
H1455   C1569 
H1456   C1570 
H1457   C1571 
H1458   C1572 
H1459   C1573 
H1460   C1574 
H1461   C1569 
H1462   C1570 
H1463   C1571 
H1464   C1572 
H1465   C1573 
H1466   C1574 
H1467   C1575 
H1468   C1576 
H1469   C1577 
H1470   C1578 
H1471   C1579 
H1472   C1580 
H1473   C1575 
H1474   C1576 
H1475   C1577 
H1476   C1578 
H1477   C1579 
H1478   C1580 
H1479   C1581 
H1480   C1582 
H1481   C1583 
H1482   C1584 
H1483   C1585 
H1484   C1586 
H1485   C1581 
H1486   C1582 
H1487   C1583 
H1488   C1584 
H1489   C1585 
H1490   C1586 
H1491   C1599 
H1492   C1600 
H1493   C1601 
H1494   C1602 
H1495   C1603 
H1496   C1604 
H1497   C1599 
H1498   C1600 
H1499   C1601 
H1500   C1602 
H1501   C1603 
H1502   C1604 
H1503   C1599 
H1504   C1600 
H1505   C1601 
H1506   C1602 
H1507   C1603 
H1508   C1604 
H1515   C1593 
H1516   C1594 
H1517   C1595 
H1518   C1596 
H1519   C1597 
H1520   C1598 
H1521   C1587 
H1522   C1588 
H1523   C1589 
H1524   C1590 
H1525   C1591 
H1526   C1592 
C1533   C1539 
C1533   C1545 
C1533   C1552 
C1534   C1540 
C1534   C1546 
C1534   C1551 
C1535   C1541 
C1535   C1547 
C1535   C1554 
C1536   C1542 
C1536   C1548 
C1536   C1553 
C1537   C1543 
C1537   C1549 
C1537   C1556 
C1538   C1544 
C1538   C1550 
C1538   C1555 
C1545   O1606 
C1546   O1607 
C1547   O1608 
C1548   O1609 
C1549   O1610 
C1550   O1611 
C1551   O1612 
C1551   O1615 
C1552   O1618 
C1552   O1621 
C1553   O1613 
C1553   O1616 
C1554   O1619 
C1554   O1622 
C1555   O1614 
C1555   O1617 
C1556   O1620 
C1556   O1623 
C1557   C1575 
C1557   C1593 
C1558   C1576 
C1558   C1594 
C1559   C1577 
C1559   C1595 
C1560   C1578 
C1560   C1596 
C1561   C1579 
C1561   C1597 
C1562   C1580 
C1562   C1598 
C1563   C1581 
C1563   C1587 
C1564   C1582 
C1564   C1588 
C1565   C1583 
C1565   C1589 
C1566   C1584 
C1566   C1590 
C1567   C1585 
C1567   C1591 
C1568   C1586 
C1568   C1592 
C1569   C1581 
C1569   C1599 
C1570   C1582 
C1570   C1600 
C1571   C1583 
C1571   C1601 
C1572   C1584 
C1572   C1602 
C1573   C1585 
C1573   C1603 
C1574   C1586 
C1574   C1604 
C1575   O1606 
C1576   O1607 
C1577   O1608 
C1578   O1609 
C1579   O1610 
C1580   O1611 
  
#END  
