data_
_symmetry_cell_setting           triclinic 
_symmetry_space_group_name_H-M   'P 1' 
_symmetry_Int_Tables_number      1 
loop_ 
_symmetry_equiv_pos_site_id 
_symmetry_equiv_pos_as_xyz 
1 x,y,z 
_cell_length_a             16.559336        
_cell_length_b             14.223343        
_cell_length_c             19.109502        
_cell_angle_alpha          90.925488        
_cell_angle_beta           89.394940        
_cell_angle_gamma          89.917666        
loop_  
_atom_site_label   
_atom_site_type_symbol  
_atom_site_fract_x  
_atom_site_fract_y  
_atom_site_fract_z 
 Cu0  Cu     0.004751     -0.005814      0.067992 
 Cu1  Cu     0.004804     -0.015485     -0.068322 
 O2  O    -0.090966      0.067955     -0.059915 
 C3  C    -0.118070      0.098853     -0.001394 
 O4  O    -0.086907      0.083299      0.057993 
 O5  O     0.080319      0.095828     -0.060065 
 C6  C     0.106777      0.126450     -0.001467 
 O7  O     0.081758      0.099754      0.058109 
 O8  O    -0.069510     -0.125977     -0.054157 
 C9  C    -0.099035     -0.144829      0.005933 
 O10  O    -0.074964     -0.110055      0.063813 
 O11  O     0.098865     -0.100451     -0.061825 
 C12  C     0.126982     -0.122043     -0.002418 
 O13  O     0.098210     -0.094804      0.056610 
 Cu14  Cu    -0.497481      0.492136      0.064598 
 Cu15  Cu    -0.491522      0.486526     -0.071667 
 O16  O     0.428316     -0.407950     -0.061781 
 C17  C     0.397766     -0.380706     -0.003373 
 O18  O     0.421134     -0.406513      0.056646 
 O19  O    -0.397074     -0.426766     -0.060061 
 C20  C    -0.374077     -0.396307     -0.000447 
 O21  O    -0.409338     -0.412604      0.057686 
 O22  O     0.416330      0.397677     -0.066442 
 C23  C     0.387573      0.371178     -0.008035 
 O24  O     0.414092      0.396692      0.051785 
 O25  O    -0.415640      0.378699     -0.061397 
 C26  C    -0.388546      0.357784     -0.001472 
 O27  O    -0.413903      0.392174      0.056629 
 C28  C    -0.309541      0.226642     -0.057311 
 C29  C    -0.320397      0.288038      0.000142 
 C30  C    -0.267347      0.284670      0.056959 
 C31  C    -0.204696      0.218640      0.056668 
 C32  C    -0.192774      0.158674     -0.001240 
 C33  C    -0.247232      0.159931     -0.057298 
 O34  O    -0.275094      0.343553      0.113731 
 C35  C    -0.210229      0.409285      0.123363 
 C36  C    -0.188755      0.416335      0.200597 
 C37  C    -0.161314      0.323425      0.232991 
 C38  C    -0.137339      0.334171      0.310027 
 O39  O    -0.242215      0.100535     -0.114091 
 C40  C    -0.264876      0.004939     -0.100969 
 C41  C    -0.282574     -0.044133     -0.170486 
 C42  C    -0.305924     -0.148250     -0.163812 
 C43  C    -0.383104     -0.165185     -0.120651 
 H44  H    -0.163862      0.217437      0.101091 
 H45  H    -0.349807      0.228173     -0.102131 
 H46  H    -0.215686     -0.030999     -0.073730 
 H47  H    -0.318456      0.004898     -0.066345 
 H48  H    -0.156891      0.389092      0.091505 
 H49  H    -0.231189      0.477762      0.104253 
 H50  H    -0.331417     -0.006523     -0.196959 
 H51  H    -0.229115     -0.039062     -0.204954 
 H52  H    -0.140230      0.468587      0.206465 
 H53  H    -0.240972      0.444135      0.230493 
 H54  H    -0.210191      0.271287      0.228560 
 H55  H    -0.109834      0.294641      0.202600 
 H56  H    -0.313681     -0.178701     -0.216635 
 H57  H    -0.255355     -0.186861     -0.140685 
 H58  H    -0.377062     -0.139820     -0.066359 
 H59  H    -0.435486     -0.129843     -0.143375 
 H60  H    -0.397080     -0.240588     -0.118427 
 H61  H    -0.187939      0.361012      0.342313 
 H62  H    -0.118916      0.266400      0.331676 
 H63  H    -0.086509      0.383065      0.316413 
 N64  N     0.000668      0.002796      0.317992 
 C65  C     0.051243     -0.075466      0.290375 
 C66  C    -0.082167     -0.010452      0.291377 
 C67  C     0.032267      0.092133      0.290095 
 C68  C    -0.082005     -0.011097      0.209638 
 H69  H    -0.106475     -0.077176      0.311187 
 H70  H    -0.121486      0.046056      0.312557 
 C71  C     0.051170     -0.077947      0.208674 
 H72  H     0.113230     -0.066575      0.309671 
 H73  H     0.028541     -0.142310      0.311434 
 C74  C     0.033724      0.089251      0.208368 
 H75  H    -0.005742      0.150665      0.309932 
 H76  H     0.093419      0.104567      0.310314 
 H77  H     0.113280     -0.070822      0.188131 
 H78  H     0.028052     -0.145719      0.188536 
 H79  H    -0.108264     -0.077013      0.189196 
 H80  H    -0.119379      0.046854      0.190133 
 H81  H     0.096073      0.097052      0.188666 
 N82  N     0.001014     -0.000842      0.181515 
 H83  H    -0.001607      0.147876      0.187104 
 C84  C     0.221826      0.199644     -0.065262 
 C85  C     0.176057      0.195143     -0.003311 
 C86  C     0.197759      0.249663      0.055716 
 C87  C     0.268269      0.304309      0.052935 
 C88  C     0.314558      0.307961     -0.008619 
 C89  C     0.292047      0.254793     -0.067966 
 O90  O     0.148998      0.247946      0.114243 
 C91  C     0.161914      0.312635      0.171694 
 C92  C     0.139668      0.413194      0.152523 
 C93  C     0.050593      0.426485      0.133199 
 C94  C     0.031810     -0.473347      0.109586 
 O95  O     0.339911      0.258079     -0.126744 
 C96  C     0.333857      0.184927     -0.179041 
 C97  C     0.409349      0.188477     -0.225191 
 C98  C     0.488756      0.175402     -0.185265 
 C99  C     0.497808      0.078618     -0.151880 
 H100  H     0.287112      0.345290      0.098715 
 H101  H     0.204259      0.158190     -0.111140 
 H102  H     0.328275      0.115871     -0.154121 
 H103  H     0.279291      0.196546     -0.210234 
 H104  H     0.123500      0.289150      0.215428 
 H105  H     0.224768      0.307593      0.189544 
 H106  H     0.405378      0.134435     -0.266879 
 H107  H     0.411065      0.256193     -0.252236 
 H108  H     0.153938      0.460170      0.197017 
 H109  H     0.177674      0.437383      0.108783 
 H110  H     0.034530      0.376055      0.091276 
 H111  H     0.012112      0.409178      0.178516 
 H112  H    -0.460130      0.187058     -0.221362 
 H113  H     0.493551      0.230402     -0.144223 
 H114  H     0.450214      0.066022     -0.112644 
 H115  H     0.495195      0.021732     -0.191405 
 H116  H    -0.444071      0.073027     -0.125054 
 H117  H    -0.032087     -0.465822      0.095663 
 H118  H     0.045084     -0.421400      0.151034 
 H119  H     0.068222     -0.454461      0.063503 
 C120  C     0.208677     -0.249168     -0.058968 
 C121  C     0.200258     -0.184375     -0.003331 
 C122  C     0.257403     -0.181704      0.050652 
 C123  C     0.319626     -0.248445      0.051189 
 C124  C     0.327491     -0.313929     -0.004065 
 C125  C     0.270883     -0.315837     -0.058331 
 O126  O     0.254425     -0.117586      0.104691 
 C127  C     0.271690     -0.021739      0.086771 
 C128  C     0.362916     -0.006719      0.084909 
 C129  C     0.387238      0.094629      0.067773 
 C130  C     0.478735      0.111434      0.067942 
 O131  O     0.275127     -0.380685     -0.111676 
 C132  C     0.236259     -0.469047     -0.098176 
 C133  C     0.155830     -0.472054     -0.136326 
 C134  C     0.112278      0.432611     -0.132907 
 C135  C     0.078815      0.408777     -0.060277 
 H136  H     0.362649     -0.246007      0.094032 
 H137  H     0.165573     -0.251757     -0.101743 
 H138  H     0.276678      0.474247     -0.117026 
 H139  H     0.227856     -0.478271     -0.041390 
 H140  H     0.244967     -0.004718      0.035956 
 H141  H     0.242347      0.024250      0.126391 
 H142  H     0.115510     -0.416594     -0.115190 
 H143  H     0.166702     -0.454986     -0.191638 
 H144  H     0.388465     -0.025693      0.135758 
 H145  H     0.390603     -0.054892      0.045768 
 H146  H     0.363414      0.112342      0.016054 
 H147  H     0.357957      0.143413      0.105529 
 H148  H     0.062325      0.432031     -0.170478 
 H149  H     0.154072      0.376590     -0.150488 
 H150  H     0.048891      0.339799     -0.060908 
 H151  H     0.127016      0.406068     -0.021305 
 H152  H     0.034109      0.461126     -0.042168 
 H153  H    -0.490052      0.066022      0.029191 
 H154  H     0.492879      0.184763      0.055078 
 H155  H    -0.495499      0.097553      0.119520 
 N156  N    -0.499897     -0.495682      0.315034 
 C157  C     0.419948      0.476704      0.287989 
 C158  C    -0.479986     -0.401990      0.287118 
 C159  C    -0.439719      0.435902      0.287569 
 C160  C    -0.481413     -0.403997      0.205369 
 H161  H     0.476821     -0.349653      0.308611 
 H162  H    -0.419738     -0.380991      0.305622 
 C163  C     0.420971      0.471621      0.206235 
 H164  H     0.402733      0.408045      0.309527 
 H165  H     0.374796     -0.471736      0.307141 
 C166  C    -0.437747      0.435266      0.205917 
 H167  H    -0.379719      0.453320      0.308480 
 H168  H    -0.455466      0.365714      0.307065 
 H169  H     0.407882      0.399399      0.187815 
 H170  H     0.373842     -0.482678      0.184569 
 H171  H     0.472646     -0.355002      0.185841 
 H172  H    -0.422726     -0.380684      0.184171 
 H173  H    -0.448566      0.363647      0.185094 
 N174  N    -0.499183     -0.499935      0.178403 
 H175  H    -0.377910      0.457247      0.186455 
 C176  C    -0.301116     -0.259308      0.050261 
 C177  C    -0.300029     -0.335333      0.002809 
 C178  C    -0.232243     -0.352549     -0.040420 
 C179  C    -0.166799     -0.289681     -0.037912 
 C180  C    -0.169190     -0.211756      0.007700 
 C181  C    -0.236486     -0.195603      0.051762 
 O182  O    -0.233051     -0.431926     -0.082189 
 C183  C    -0.162241     -0.459649     -0.121443 
 C184  C    -0.155742     -0.404143     -0.188950 
 C185  C    -0.225929     -0.422229     -0.239191 
 C186  C    -0.224215     -0.357815     -0.302576 
 O187  O    -0.236950     -0.119948      0.097036 
 C188  C    -0.309034     -0.063584      0.102380 
 C189  C    -0.306538     -0.004868      0.169692 
 C190  C    -0.300099     -0.062476      0.237012 
 C191  C    -0.372544     -0.126909      0.251268 
 H192  H    -0.113415     -0.300879     -0.071102 
 H193  H    -0.352725     -0.249113      0.085625 
 H194  H    -0.310285     -0.017515      0.056635 
 H195  H    -0.364179     -0.106522      0.100891 
 H196  H    -0.108039     -0.451599     -0.088948 
 H197  H    -0.168206      0.464640     -0.133346 
 H198  H    -0.255181      0.044053      0.166552 
 H199  H    -0.360907      0.039738      0.172955 
 H200  H    -0.152644     -0.328202     -0.177244 
 H201  H    -0.098484     -0.422324     -0.215787 
 H202  H    -0.224587     -0.496281     -0.256895 
 H203  H    -0.283412     -0.412142     -0.210675 
 H204  H    -0.244609     -0.105098      0.234571 
 H205  H    -0.292495     -0.013960      0.281878 
 H206  H    -0.379090     -0.180895      0.209953 
 H207  H    -0.365326     -0.163776      0.300970 
 H208  H    -0.429300     -0.086886      0.254768 
 H209  H    -0.271149     -0.377313     -0.340349 
 H210  H    -0.233977     -0.283982     -0.286902 
 H211  H    -0.165668     -0.361537     -0.329785 
 Cu212  Cu     0.007615      0.008417     -0.432564 
 Cu213  Cu     0.006954      0.006842      0.431391 
 O214  O    -0.077937      0.103737      0.438949 
 C215  C    -0.094130      0.144432      0.497299 
 O216  O    -0.059377      0.127414     -0.444913 
 O217  O     0.091918      0.106232      0.443335 
 C218  C     0.129684      0.117492     -0.499295 
 O219  O     0.109917      0.080373     -0.441401 
 O220  O    -0.079884     -0.089952      0.443227 
 C221  C    -0.116798     -0.100318     -0.498462 
 O222  O    -0.094371     -0.064668     -0.440319 
 O223  O     0.092513     -0.089867      0.439147 
 C224  C     0.111106     -0.126493      0.497086 
 O225  O     0.074487     -0.110354     -0.444764 
 Cu226  Cu    -0.490805     -0.493823     -0.434932 
 Cu227  Cu    -0.493886     -0.492378      0.429050 
 O228  O     0.424055     -0.390007      0.444536 
 C229  C     0.388942     -0.377060     -0.496306 
 O230  O     0.409738     -0.415170     -0.439401 
 O231  O    -0.406197     -0.398595      0.438048 
 C232  C    -0.388229     -0.359579      0.496257 
 O233  O    -0.421626     -0.378177     -0.445089 
 O234  O     0.418315      0.414432      0.438169 
 C235  C     0.402128      0.374937      0.495922 
 O236  O     0.439592      0.389831     -0.446937 
 O237  O    -0.411038      0.405488      0.436107 
 C238  C    -0.372794      0.392233      0.492614 
 O239  O    -0.390942      0.429527     -0.448195 
 C240  C    -0.238185      0.348969     -0.460835 
 C241  C    -0.298944      0.330316      0.490461 
 C242  C    -0.291424      0.254458      0.442947 
 C243  C    -0.223524      0.195553      0.446337 
 C244  C    -0.163251      0.213226      0.495817 
 C245  C    -0.168625      0.292174     -0.459231 
 O246  O    -0.352068      0.240387      0.395816 
 C247  C    -0.354194      0.155327      0.354721 
 C248  C    -0.433810      0.152797      0.315510 
 C249  C     0.490864      0.165449      0.362643 
 C250  C     0.479534      0.087612      0.416533 
 O251  O    -0.105440      0.311338     -0.415430 
 C252  C    -0.092283      0.407067     -0.392966 
 C253  C    -0.063871      0.466671     -0.454437 
 C254  C    -0.067381     -0.427030     -0.438768 
 C255  C    -0.030858     -0.366206     -0.496469 
 H256  H    -0.218100      0.135076      0.410686 
 H257  H    -0.245323      0.408322     -0.424312 
 H258  H    -0.146908      0.436117     -0.367417 
 H259  H    -0.045586      0.405456     -0.352429 
 H260  H    -0.302734      0.154698      0.317675 
 H261  H    -0.348655      0.094084      0.388962 
 H262  H    -0.001734      0.446132     -0.469076 
 H263  H    -0.100733      0.451621      0.499052 
 H264  H    -0.433279      0.208059      0.275799 
 H265  H    -0.438547      0.085757      0.286253 
 H266  H     0.493586      0.234143      0.390040 
 H267  H     0.437171      0.168765      0.329359 
 H268  H    -0.131061     -0.406586     -0.431362 
 H269  H    -0.036831     -0.411402     -0.389021 
 H270  H     0.033697     -0.380714      0.495829 
 H271  H    -0.060971     -0.378619      0.453312 
 H272  H    -0.036912     -0.290938     -0.483315 
 H273  H    -0.469660      0.084937      0.452913 
 H274  H     0.424564      0.099754      0.448113 
 H275  H     0.474357      0.018147      0.390998 
 N276  N     0.007612     -0.006004     -0.182426 
 C277  C     0.091163      0.002570     -0.209922 
 C278  C    -0.027887     -0.092837     -0.212481 
 C279  C    -0.039461      0.075347     -0.207261 
 C280  C    -0.030588     -0.087614     -0.294065 
 H281  H     0.008547     -0.153516     -0.196147 
 H282  H    -0.089077     -0.102871     -0.190532 
 C283  C     0.091960      0.001508     -0.291681 
 H284  H     0.117377      0.068673     -0.189693 
 H285  H     0.128543     -0.055061     -0.189864 
 C286  C    -0.035676      0.081000     -0.288825 
 H287  H    -0.102629      0.067743     -0.189565 
 H288  H    -0.016313      0.140498     -0.182675 
 H289  H     0.123891      0.063725     -0.311607 
 H290  H     0.124561     -0.060796     -0.312274 
 H291  H    -0.000782     -0.149344     -0.318706 
 H292  H    -0.093735     -0.088317     -0.311620 
 H293  H    -0.005117      0.146036     -0.305189 
 N294  N     0.008708     -0.000583     -0.318969 
 H295  H    -0.097006      0.083088     -0.310705 
 C296  C     0.204526      0.251472      0.449467 
 C297  C     0.202788      0.180154      0.499064 
 C298  C     0.267055      0.170554     -0.453955 
 C299  C     0.330439      0.235983     -0.453924 
 C300  C     0.331444      0.308315      0.497062 
 C301  C     0.267511      0.316879      0.449399 
 O302  O     0.268544      0.099198     -0.406996 
 C303  C     0.316709      0.019725     -0.428764 
 C304  C     0.301086     -0.062907     -0.380767 
 C305  C     0.323855     -0.045599     -0.303867 
 C306  C     0.308935     -0.131239     -0.257662 
 O307  O     0.263403      0.386065      0.400736 
 C308  C     0.248769      0.479106      0.428385 
 C309  C     0.158529      0.499419      0.432117 
 C310  C     0.116296     -0.494025      0.361070 
 C311  C     0.141056     -0.407409      0.319008 
 H312  H     0.379116      0.228007     -0.416402 
 H313  H     0.155686      0.259928      0.412136 
 H314  H     0.274836      0.486115      0.480970 
 H315  H     0.280411     -0.470438      0.394863 
 H316  H     0.301370      0.000409     -0.483142 
 H317  H     0.380934      0.039863     -0.428055 
 H318  H     0.128557      0.445454      0.463878 
 H319  H     0.149985     -0.433515      0.460692 
 H320  H     0.236725     -0.081656     -0.383604 
 H321  H     0.334650     -0.124564     -0.401248 
 H322  H     0.388038     -0.025895     -0.301239 
 H323  H     0.289326      0.014893     -0.282781 
 H324  H     0.128134      0.441415      0.330050 
 H325  H     0.050533     -0.492064      0.370257 
 H326  H     0.129169     -0.342008      0.348890 
 H327  H     0.205602     -0.408701      0.305092 
 H328  H     0.107028     -0.403508      0.270087 
 H329  H     0.344731     -0.192172     -0.275962 
 H330  H     0.325517     -0.116297     -0.203041 
 H331  H     0.245090     -0.152205     -0.257887 
 C332  C     0.311066     -0.248387      0.450221 
 C333  C     0.316511     -0.312766     -0.495544 
 C334  C     0.254464     -0.318447     -0.445040 
 C335  C     0.188236     -0.256779     -0.448113 
 C336  C     0.182900     -0.191976      0.497529 
 C337  C     0.244394     -0.187635      0.446055 
 O338  O     0.260144     -0.384386     -0.393961 
 C339  C     0.187306     -0.430657     -0.372397 
 C340  C     0.210048      0.471941     -0.347141 
 C341  C     0.136912      0.407707     -0.335132 
 C342  C     0.159855      0.310527     -0.308020 
 O343  O     0.239248     -0.123246      0.393428 
 C344  C     0.306617     -0.113576      0.345995 
 C345  C     0.291607     -0.035473      0.294167 
 C346  C     0.272714      0.060619      0.328393 
 C347  C     0.268097      0.140385      0.275539 
 H348  H     0.141254     -0.259626     -0.407698 
 H349  H     0.359579     -0.246028      0.411068 
 H350  H     0.361300     -0.097920      0.376409 
 H351  H     0.315900     -0.180650      0.317314 
 H352  H     0.157999     -0.388770     -0.330268 
 H353  H     0.145106     -0.435957     -0.416451 
 H354  H     0.345531     -0.028824      0.260391 
 H355  H     0.241982     -0.055857      0.259198 
 H356  H     0.251005      0.437911     -0.385770 
 H357  H     0.244443      0.478652     -0.298309 
 H358  H     0.094542      0.442198     -0.298084 
 H359  H     0.104278      0.398759     -0.384703 
 H360  H     0.215383      0.056236      0.357829 
 H361  H     0.318831      0.077605      0.367577 
 H362  H     0.221086      0.127013      0.236573 
 H363  H     0.254251      0.207777      0.301980 
 H364  H     0.325604      0.148696      0.247085 
 H365  H     0.199429      0.272807     -0.345483 
 H366  H     0.191961      0.316003     -0.258141 
 H367  H     0.106028      0.266827     -0.299792 
 N368  N    -0.493497     -0.498749     -0.184806 
 C369  C    -0.474800     -0.402546     -0.208535 
 C370  C    -0.431824      0.436180     -0.214464 
 C371  C     0.427090      0.474568     -0.213601 
 C372  C    -0.429979      0.440635     -0.296074 
 H373  H    -0.372335      0.454315     -0.192670 
 H374  H    -0.445606      0.364205     -0.197592 
 C375  C    -0.473837     -0.398597     -0.290258 
 H376  H     0.480029     -0.353208     -0.186179 
 H377  H    -0.415895     -0.380948     -0.187485 
 C378  C     0.428602      0.477518     -0.295164 
 H379  H     0.410902      0.403753     -0.195802 
 H380  H     0.380929     -0.476813     -0.192170 
 H381  H     0.481056     -0.347874     -0.308868 
 H382  H    -0.414539     -0.374531     -0.309544 
 H383  H    -0.369846      0.462705     -0.314906 
 H384  H    -0.441629      0.370565     -0.319392 
 H385  H     0.382396     -0.473398     -0.313962 
 N386  N    -0.491251     -0.492338     -0.321147 
 H387  H     0.414249      0.407715     -0.317607 
 C388  C    -0.306769     -0.234950     -0.442620 
 C389  C    -0.321276     -0.287745      0.496238 
 C390  C    -0.272286     -0.274280      0.436727 
 C391  C    -0.209558     -0.208506      0.438481 
 C392  C    -0.192670     -0.158814     -0.499574 
 C393  C    -0.243760     -0.169159     -0.440772 
 O394  O    -0.285521     -0.322497      0.375688 
 C395  C    -0.234593     -0.402814      0.362848 
 C396  C    -0.161545     -0.375396      0.318544 
 C397  C    -0.183577     -0.326532      0.250095 
 C398  C    -0.109420     -0.297638      0.207108 
 O399  O    -0.232769     -0.121066     -0.379181 
 C400  C    -0.260628     -0.025227     -0.376916 
 C401  C    -0.352364     -0.022779     -0.368360 
 C402  C    -0.386852      0.074430     -0.347849 
 C403  C    -0.368151      0.151738     -0.400579 
 H404  H    -0.172950     -0.199347      0.391329 
 H405  H    -0.344095     -0.243157     -0.395726 
 H406  H    -0.231138      0.010213     -0.332425 
 H407  H    -0.241044      0.011110     -0.424695 
 H408  H    -0.215900     -0.432997      0.412965 
 H409  H    -0.270996     -0.456529      0.335801 
 H410  H    -0.380557     -0.047333     -0.417322 
 H411  H    -0.370650     -0.073274     -0.328056 
 H412  H    -0.121481     -0.329238      0.349173 
 H413  H    -0.125592     -0.438861      0.306466 
 H414  H    -0.222130     -0.373058      0.218238 
 H415  H    -0.220227     -0.263650      0.262237 
 H416  H    -0.452782      0.068378     -0.341218 
 H417  H    -0.363531      0.095696     -0.296234 
 H418  H    -0.390712      0.133397     -0.452881 
 H419  H    -0.396369      0.218810     -0.384544 
 H420  H    -0.302870      0.164134     -0.405361 
 H421  H    -0.126921     -0.262281      0.158835 
 H422  H    -0.070871     -0.249202      0.237038 
 H423  H    -0.072763     -0.359134      0.192061 
loop_  
_geom_bond_atom_site_label_1  
_geom_bond_atom_site_label_2  
Cu0   Cu1 
Cu0   O4 
Cu0   O7 
Cu0   O10 
Cu0   O13 
Cu0   N82 
Cu1   O2 
Cu1   O5 
Cu1   O8 
Cu1   O11 
Cu1   N276 
O2   C3 
C3   O4 
C3   C32 
O5   C6 
C6   O7 
C6   C85 
O8   C9 
C9   O10 
C9   C180 
O11   C12 
C12   O13 
C12   C121 
Cu14   Cu15 
Cu14   O18 
Cu14   O21 
Cu14   O24 
Cu14   O27 
Cu14   N174 
Cu15   O16 
Cu15   O19 
Cu15   O22 
Cu15   O25 
Cu15   N368 
O16   C17 
C17   O18 
C17   C124 
O19   C20 
C20   O21 
C20   C177 
O22   C23 
C23   O24 
C23   C88 
O25   C26 
C26   O27 
C26   C29 
C28   C29 
C28   C33 
C28   H45 
C29   C30 
C30   C31 
C30   O34 
C31   C32 
C31   H44 
C32   C33 
C33   O39 
O34   C35 
C35   C36 
C35   H48 
C35   H49 
C36   C37 
C36   H52 
C36   H53 
C37   C38 
C37   H54 
C37   H55 
C38   H61 
C38   H62 
C38   H63 
O39   C40 
C40   C41 
C40   H46 
C40   H47 
C41   C42 
C41   H50 
C41   H51 
C42   C43 
C42   H56 
C42   H57 
C43   H58 
C43   H59 
C43   H60 
N64   C65 
N64   C66 
N64   C67 
N64   Cu213 
C65   C71 
C65   H72 
C65   H73 
C66   C68 
C66   H69 
C66   H70 
C67   C74 
C67   H75 
C67   H76 
C68   H79 
C68   H80 
C68   N82 
C71   H77 
C71   H78 
C71   N82 
C74   H81 
C74   N82 
C74   H83 
C84   C85 
C84   C89 
C84   H101 
C85   C86 
C86   C87 
C86   O90 
C87   C88 
C87   H100 
C88   C89 
C89   O95 
O90   C91 
C91   C92 
C91   H104 
C91   H105 
C92   C93 
C92   H108 
C92   H109 
C93   C94 
C93   H110 
C93   H111 
C94   H117 
C94   H118 
C94   H119 
O95   C96 
C96   C97 
C96   H102 
C96   H103 
C97   C98 
C97   H106 
C97   H107 
C98   C99 
C98   H112 
C98   H113 
C99   H114 
C99   H115 
C99   H116 
C120   C121 
C120   C125 
C120   H137 
C121   C122 
C122   C123 
C122   O126 
C123   C124 
C123   H136 
C124   C125 
C125   O131 
O126   C127 
C127   C128 
C127   H140 
C127   H141 
C128   C129 
C128   H144 
C128   H145 
C129   C130 
C129   H146 
C129   H147 
C130   H153 
C130   H154 
C130   H155 
O131   C132 
C132   C133 
C132   H138 
C132   H139 
C133   C134 
C133   H142 
C133   H143 
C134   C135 
C134   H148 
C134   H149 
C135   H150 
C135   H151 
C135   H152 
N156   C157 
N156   C158 
N156   C159 
N156   Cu227 
C157   C163 
C157   H164 
C157   H165 
C158   C160 
C158   H161 
C158   H162 
C159   C166 
C159   H167 
C159   H168 
C160   H171 
C160   H172 
C160   N174 
C163   H169 
C163   H170 
C163   N174 
C166   H173 
C166   N174 
C166   H175 
C176   C177 
C176   C181 
C176   H193 
C177   C178 
C178   C179 
C178   O182 
C179   C180 
C179   H192 
C180   C181 
C181   O187 
O182   C183 
C183   C184 
C183   H196 
C183   H197 
C184   C185 
C184   H200 
C184   H201 
C185   C186 
C185   H202 
C185   H203 
C186   H209 
C186   H210 
C186   H211 
O187   C188 
C188   C189 
C188   H194 
C188   H195 
C189   C190 
C189   H198 
C189   H199 
C190   C191 
C190   H204 
C190   H205 
C191   H206 
C191   H207 
C191   H208 
Cu212   Cu213 
Cu212   O216 
Cu212   O219 
Cu212   O222 
Cu212   O225 
Cu212   N294 
Cu213   O214 
Cu213   O217 
Cu213   O220 
Cu213   O223 
O214   C215 
C215   O216 
C215   C244 
O217   C218 
C218   O219 
C218   C297 
O220   C221 
C221   O222 
C221   C392 
O223   C224 
C224   O225 
C224   C336 
Cu226   Cu227 
Cu226   O230 
Cu226   O233 
Cu226   O236 
Cu226   O239 
Cu226   N386 
Cu227   O228 
Cu227   O231 
Cu227   O234 
Cu227   O237 
O228   C229 
C229   O230 
C229   C333 
O231   C232 
C232   O233 
C232   C389 
O234   C235 
C235   O236 
C235   C300 
O237   C238 
C238   O239 
C238   C241 
C240   C241 
C240   C245 
C240   H257 
C241   C242 
C242   C243 
C242   O246 
C243   C244 
C243   H256 
C244   C245 
C245   O251 
O246   C247 
C247   C248 
C247   H260 
C247   H261 
C248   C249 
C248   H264 
C248   H265 
C249   C250 
C249   H266 
C249   H267 
C250   H273 
C250   H274 
C250   H275 
O251   C252 
C252   C253 
C252   H258 
C252   H259 
C253   C254 
C253   H262 
C253   H263 
C254   C255 
C254   H268 
C254   H269 
C255   H270 
C255   H271 
C255   H272 
N276   C277 
N276   C278 
N276   C279 
C277   C283 
C277   H284 
C277   H285 
C278   C280 
C278   H281 
C278   H282 
C279   C286 
C279   H287 
C279   H288 
C280   H291 
C280   H292 
C280   N294 
C283   H289 
C283   H290 
C283   N294 
C286   H293 
C286   N294 
C286   H295 
C296   C297 
C296   C301 
C296   H313 
C297   C298 
C298   C299 
C298   O302 
C299   C300 
C299   H312 
C300   C301 
C301   O307 
O302   C303 
C303   C304 
C303   H316 
C303   H317 
C304   C305 
C304   H320 
C304   H321 
C305   C306 
C305   H322 
C305   H323 
C306   H329 
C306   H330 
C306   H331 
O307   C308 
C308   C309 
C308   H314 
C308   H315 
C309   C310 
C309   H318 
C309   H319 
C310   C311 
C310   H324 
C310   H325 
C311   H326 
C311   H327 
C311   H328 
C332   C333 
C332   C337 
C332   H349 
C333   C334 
C334   C335 
C334   O338 
C335   C336 
C335   H348 
C336   C337 
C337   O343 
O338   C339 
C339   C340 
C339   H352 
C339   H353 
C340   C341 
C340   H356 
C340   H357 
C341   C342 
C341   H358 
C341   H359 
C342   H365 
C342   H366 
C342   H367 
O343   C344 
C344   C345 
C344   H350 
C344   H351 
C345   C346 
C345   H354 
C345   H355 
C346   C347 
C346   H360 
C346   H361 
C347   H362 
C347   H363 
C347   H364 
N368   C369 
N368   C370 
N368   C371 
C369   C375 
C369   H376 
C369   H377 
C370   C372 
C370   H373 
C370   H374 
C371   C378 
C371   H379 
C371   H380 
C372   H383 
C372   H384 
C372   N386 
C375   H381 
C375   H382 
C375   N386 
C378   H385 
C378   N386 
C378   H387 
C388   C389 
C388   C393 
C388   H405 
C389   C390 
C390   C391 
C390   O394 
C391   C392 
C391   H404 
C392   C393 
C393   O399 
O394   C395 
C395   C396 
C395   H408 
C395   H409 
C396   C397 
C396   H412 
C396   H413 
C397   C398 
C397   H414 
C397   H415 
C398   H421 
C398   H422 
C398   H423 
O399   C400 
C400   C401 
C400   H406 
C400   H407 
C401   C402 
C401   H410 
C401   H411 
C402   C403 
C402   H416 
C402   H417 
C403   H418 
C403   H419 
C403   H420 
  
#END  
