data_
_symmetry_cell_setting           triclinic 
_symmetry_space_group_name_H-M   'P 1' 
_symmetry_Int_Tables_number      1 
loop_ 
_symmetry_equiv_pos_site_id 
_symmetry_equiv_pos_as_xyz 
1 x,y,z 
_cell_length_a             15.559399        
_cell_length_b             15.252451        
_cell_length_c             19.036752        
_cell_angle_alpha          91.465867        
_cell_angle_beta           94.869664        
_cell_angle_gamma          89.925141        
loop_  
_atom_site_label   
_atom_site_type_symbol  
_atom_site_fract_x  
_atom_site_fract_y  
_atom_site_fract_z 
 Cu0  Cu     0.007099      0.014293      0.074036 
 Cu1  Cu    -0.001245     -0.000971     -0.063809 
 O2  O    -0.069815      0.108934     -0.050946 
 C3  C    -0.107655      0.135076      0.002983 
 O4  O    -0.088863      0.100615      0.064018 
 O5  O     0.098909      0.078278     -0.043115 
 C6  C     0.122832      0.124231      0.015370 
 O7  O     0.089224      0.115363      0.072373 
 O8  O    -0.097624     -0.086171     -0.058467 
 C9  C    -0.118000     -0.105486      0.001728 
 O10  O    -0.081168     -0.079688      0.058795 
 O11  O     0.078834     -0.093938     -0.045836 
 C12  C     0.117790     -0.113456      0.014796 
 O13  O     0.097885     -0.080932      0.072031 
 Cu14  Cu    -0.491778     -0.487397      0.062951 
 Cu15  Cu     0.499289     -0.488948     -0.072532 
 O16  O     0.399254     -0.391768     -0.062195 
 C17  C     0.395626     -0.362460      0.000880 
 O18  O     0.444435     -0.379187      0.056835 
 O19  O    -0.417026     -0.393070     -0.057428 
 C20  C    -0.373531     -0.376591     -0.001716 
 O21  O    -0.381984     -0.417364      0.054145 
 O22  O     0.408970      0.413221     -0.072970 
 C23  C     0.376707      0.398373     -0.014827 
 O24  O     0.400069      0.441402      0.044024 
 O25  O    -0.406785      0.419860     -0.057829 
 C26  C    -0.397809      0.379222      0.001377 
 O27  O    -0.431930      0.400406      0.055866 
 C28  C    -0.296118      0.279777     -0.060234 
 C29  C    -0.333549      0.301831      0.003276 
 C30  C    -0.302395      0.255780      0.065969 
 C31  C    -0.228837      0.202743      0.066262 
 C32  C    -0.190014      0.188027      0.002239 
 C33  C    -0.224758      0.226054     -0.061209 
 O34  O    -0.340681      0.273464      0.126520 
 C35  C    -0.303601      0.251736      0.195645 
 C36  C    -0.223961      0.314672      0.214524 
 C37  C    -0.152457      0.292598      0.268189 
 C38  C    -0.186069      0.285782      0.340081 
 O39  O    -0.187461      0.198849     -0.119574 
 C40  C    -0.217967      0.232423     -0.188808 
 C41  C    -0.289174      0.178163     -0.232063 
 C42  C    -0.326282      0.219542     -0.299952 
 C43  C    -0.398830      0.168358     -0.345881 
 H44  H    -0.209968      0.168433      0.110569 
 H45  H    -0.316937      0.311300     -0.106289 
 H46  H    -0.235836      0.295958     -0.184462 
 H47  H    -0.162652      0.237710     -0.219648 
 H48  H    -0.353183      0.260587      0.230109 
 H49  H    -0.285860      0.182015      0.194684 
 H50  H    -0.268926      0.111235     -0.241661 
 H51  H    -0.341729      0.167014     -0.195431 
 H52  H    -0.198759      0.311247      0.162081 
 H53  H    -0.246341      0.379932      0.227502 
 H54  H    -0.124861      0.231624      0.251641 
 H55  H    -0.103172      0.344566      0.262727 
 H56  H    -0.350839      0.283242     -0.285860 
 H57  H    -0.272884      0.238847     -0.332712 
 H58  H    -0.371720      0.106218     -0.366069 
 H59  H    -0.455183      0.154803     -0.315641 
 H60  H    -0.423397      0.213865     -0.391973 
 H61  H    -0.131519      0.268708      0.377222 
 H62  H    -0.214613      0.344755      0.359725 
 H63  H    -0.233294      0.234070      0.338886 
 N64  N     0.012962     -0.022998      0.324139 
 C65  C    -0.018392     -0.109770      0.298181 
 C66  C    -0.035686      0.043559      0.294311 
 C67  C     0.101898     -0.022008      0.302057 
 C68  C    -0.040175      0.038962      0.212602 
 H69  H    -0.101881      0.040280      0.312435 
 H70  H    -0.003569      0.106759      0.315959 
 C71  C    -0.013220     -0.115156      0.214744 
 H72  H     0.018600     -0.164478      0.323486 
 H73  H    -0.082884     -0.115392      0.312498 
 C74  C     0.106569     -0.011046      0.222236 
 H75  H     0.145424      0.022805      0.332482 
 H76  H     0.131358     -0.088056      0.315676 
 H77  H     0.030095     -0.169881      0.199508 
 H78  H    -0.080454     -0.133316      0.189013 
 H79  H    -0.106802      0.025825      0.188822 
 H80  H    -0.017688      0.103520      0.192601 
 H81  H     0.155916     -0.053445      0.199373 
 N82  N     0.021020     -0.031627      0.187770 
 H83  H     0.122242      0.056125      0.211356 
 C84  C     0.265958      0.327418      0.053080 
 C85  C     0.312354      0.326944     -0.010228 
 C86  C     0.295685      0.257489     -0.058968 
 C87  C     0.237237      0.191293     -0.050894 
 C88  C     0.193675      0.191961      0.009261 
 C89  C     0.212941      0.256100      0.063546 
 O90  O     0.345760      0.251166     -0.114764 
 C91  C     0.303900      0.231946     -0.180939 
 C92  C     0.360732      0.250779     -0.240053 
 C93  C     0.315158      0.229737     -0.311818 
 C94  C     0.294019      0.125583     -0.320113 
 O95  O     0.185118      0.241993      0.130132 
 C96  C     0.187851      0.315757      0.180437 
 C97  C     0.140657      0.283934      0.240706 
 C98  C     0.121578      0.355215      0.298818 
 C99  C     0.082789      0.321540      0.365061 
 H100  H     0.223148      0.144489     -0.093036 
 H101  H     0.280057      0.374742      0.094314 
 H102  H     0.253183      0.335069      0.198546 
 H103  H     0.150428      0.368858      0.154670 
 H104  H     0.297660      0.159600     -0.178914 
 H105  H     0.238963      0.258910     -0.185949 
 H106  H     0.077357      0.261501      0.217434 
 H107  H     0.177957      0.232843      0.268832 
 H108  H     0.373397      0.320707     -0.236451 
 H109  H     0.422674      0.222156     -0.233223 
 H110  H     0.255041      0.265736     -0.324327 
 H111  H     0.353870      0.242835     -0.357151 
 H112  H     0.176011      0.396630      0.309567 
 H113  H     0.077882      0.398451      0.274377 
 H114  H     0.024219      0.281256      0.351210 
 H115  H     0.125419      0.276302      0.396809 
 H116  H     0.062436      0.380874      0.396606 
 H117  H     0.259187      0.104569     -0.368737 
 H118  H     0.352078      0.084680     -0.310763 
 H119  H     0.256298      0.107405     -0.277728 
 C120  C     0.269670     -0.160602      0.054178 
 C121  C     0.190560     -0.177321      0.011511 
 C122  C     0.177041     -0.256822     -0.029488 
 C123  C     0.246609     -0.313633     -0.029208 
 C124  C     0.324688     -0.294178      0.007637 
 C125  C     0.341257     -0.217987      0.048697 
 O126  O     0.096764     -0.284126     -0.062601 
 C127  C     0.100588     -0.349270     -0.119157 
 C128  C     0.009185     -0.330212     -0.161896 
 C129  C    -0.069052     -0.352022     -0.121435 
 C130  C    -0.144166     -0.384400     -0.174584 
 O131  O     0.421419     -0.204729      0.087294 
 C132  C     0.483341     -0.169671      0.041743 
 C133  C    -0.430662     -0.148573      0.083796 
 C134  C    -0.443622     -0.083155      0.142555 
 C135  C    -0.366216     -0.074188      0.194656 
 H136  H     0.233783     -0.368447     -0.065755 
 H137  H     0.274355     -0.108611      0.094565 
 H138  H     0.494155     -0.223938     -0.000967 
 H139  H     0.458084     -0.108580      0.010768 
 H140  H     0.152488     -0.336862     -0.155235 
 H141  H     0.104641     -0.418680     -0.097187 
 H142  H    -0.408201     -0.212146      0.098766 
 H143  H    -0.387448     -0.119739      0.045217 
 H144  H    -0.004260     -0.262309     -0.179204 
 H145  H     0.008125     -0.369855     -0.211917 
 H146  H    -0.050644     -0.405024     -0.084282 
 H147  H    -0.096109     -0.300107     -0.084983 
 H148  H    -0.466632     -0.018454      0.118718 
 H149  H    -0.495545     -0.105481      0.171183 
 H150  H    -0.307394     -0.053791      0.170355 
 H151  H    -0.381019     -0.028786      0.238369 
 H152  H    -0.356253     -0.139025      0.217931 
 H153  H    -0.203214     -0.390728     -0.146148 
 H154  H    -0.157864     -0.335652     -0.214185 
 H155  H    -0.126312     -0.449916     -0.188950 
 N156  N    -0.487213     -0.488682      0.311529 
 C157  C     0.491059     -0.396293      0.288145 
 C158  C    -0.405731      0.479939      0.285092 
 C159  C     0.444176      0.450920      0.278205 
 C160  C    -0.408955      0.486793      0.204804 
 H161  H    -0.356826     -0.478477      0.311226 
 H162  H    -0.389030      0.417126      0.305514 
 C163  C     0.494730     -0.394150      0.206473 
 H164  H     0.433690     -0.375311      0.307695 
 H165  H    -0.459170     -0.353206      0.312931 
 C166  C     0.437880      0.462195      0.196806 
 H167  H     0.459897      0.383301      0.290228 
 H168  H     0.380589      0.464519      0.296473 
 H169  H     0.429449     -0.370096      0.184782 
 H170  H    -0.449100     -0.348259      0.190311 
 H171  H    -0.356326     -0.476374      0.189408 
 H172  H    -0.400470      0.415900      0.184826 
 H173  H     0.371810      0.481645      0.174246 
 N174  N    -0.492129     -0.483287      0.174552 
 H175  H     0.443228      0.398665      0.171115 
 C176  C    -0.318390     -0.240374     -0.051838 
 C177  C    -0.304399     -0.310012     -0.006963 
 C178  C    -0.230265     -0.312732      0.039425 
 C179  C    -0.173443     -0.238660      0.043505 
 C180  C    -0.192893     -0.167060      0.000794 
 C181  C    -0.268224     -0.165061     -0.045214 
 O182  O    -0.203189     -0.373560      0.084147 
 C183  C    -0.204274     -0.465333      0.053451 
 C184  C    -0.129930      0.482118      0.088906 
 C185  C    -0.102434      0.406265      0.043986 
 C186  C    -0.024552      0.355003      0.070755 
 O187  O    -0.305045     -0.100835     -0.087694 
 C188  C    -0.295365     -0.011187     -0.062005 
 C189  C    -0.367663      0.047160     -0.093912 
 C190  C    -0.457372      0.038000     -0.066562 
 C191  C     0.466317      0.085456     -0.108695 
 H192  H    -0.113164     -0.243048      0.077483 
 H193  H    -0.378536     -0.242036     -0.090289 
 H194  H    -0.284652     -0.003635     -0.004279 
 H195  H    -0.233026      0.008824     -0.079493 
 H196  H    -0.262220     -0.498203      0.063309 
 H197  H    -0.201873     -0.474825     -0.003451 
 H198  H    -0.351315      0.117608     -0.077643 
 H199  H    -0.374906      0.036851     -0.154375 
 H200  H    -0.079900     -0.463390      0.104023 
 H201  H    -0.147005      0.458596      0.141534 
 H202  H    -0.156003      0.358781      0.030279 
 H203  H    -0.084298      0.427709     -0.007127 
 H204  H    -0.471771     -0.030189     -0.072442 
 H205  H    -0.449531      0.055886     -0.008651 
 H206  H     0.475117      0.153808     -0.096637 
 H207  H     0.468364      0.066779     -0.165792 
 H208  H     0.404804      0.063844     -0.089322 
 H209  H     0.027678      0.400325      0.084273 
 H210  H    -0.034109      0.317652      0.120616 
 H211  H    -0.006212      0.298758      0.033597 
 Cu212  Cu     0.003454      0.007394     -0.427735 
 Cu213  Cu    -0.006140     -0.013187      0.436837 
 O214  O    -0.092650      0.081980      0.445886 
 C215  C    -0.120524      0.108837     -0.497042 
 O216  O    -0.086475      0.093946     -0.436969 
 O217  O     0.087711      0.076954      0.446338 
 C218  C     0.116839      0.118278     -0.496833 
 O219  O     0.092085      0.101504     -0.435962 
 O220  O    -0.098751     -0.094907      0.445002 
 C221  C    -0.111688     -0.125238     -0.495650 
 O222  O    -0.083945     -0.093415     -0.434211 
 O223  O     0.084163     -0.105778      0.448895 
 C224  C     0.122491     -0.119304     -0.491497 
 O225  O     0.101828     -0.078265     -0.434696 
 Cu226  Cu    -0.490038      0.497717     -0.441926 
 Cu227  Cu     0.493061      0.490596      0.420430 
 O228  O     0.419262     -0.399257      0.431400 
 C229  C     0.401139     -0.368923      0.492925 
 O230  O     0.426896     -0.403750     -0.449510 
 O231  O    -0.403544     -0.437257      0.429711 
 C232  C    -0.365252     -0.407486      0.488669 
 O233  O    -0.391526     -0.421614     -0.449157 
 O234  O     0.399297      0.405236      0.436314 
 C235  C     0.371091      0.383962      0.494688 
 O236  O     0.400447      0.413319     -0.443862 
 O237  O    -0.435904      0.382698      0.413234 
 C238  C    -0.403826      0.354652      0.473574 
 O239  O    -0.414548      0.391899     -0.470842 
 C240  C    -0.268326      0.297624     -0.471581 
 C241  C    -0.337690      0.278669      0.480016 
 C242  C    -0.337247      0.200637      0.432398 
 C243  C    -0.268629      0.138467      0.445940 
 C244  C    -0.201477      0.162247      0.498556 
 C245  C    -0.200464      0.240282     -0.462331 
 O246  O    -0.403997      0.192839      0.380195 
 C247  C    -0.405402      0.121117      0.331229 
 C248  C    -0.478114      0.145730      0.274292 
 C249  C     0.426880      0.119654      0.290626 
 C250  C     0.349524      0.155694      0.249900 
 O251  O    -0.132745      0.256684     -0.411592 
 C252  C    -0.075607      0.327693     -0.424676 
 C253  C    -0.019081      0.340184     -0.356392 
 C254  C    -0.070396      0.367755     -0.294615 
 C255  C    -0.014732      0.389795     -0.226320 
 H256  H    -0.267625      0.076091      0.413012 
 H257  H    -0.265599      0.361097     -0.437607 
 H258  H    -0.040583      0.306725     -0.469893 
 H259  H    -0.101384      0.395365     -0.437876 
 H260  H    -0.340312      0.105084      0.309278 
 H261  H    -0.427435      0.060853      0.358596 
 H262  H     0.020708      0.282178     -0.343745 
 H263  H     0.025081      0.391216     -0.362694 
 H264  H    -0.475480      0.216884      0.260357 
 H265  H    -0.458955      0.110695      0.224288 
 H266  H     0.422374      0.047945      0.295162 
 H267  H     0.416650      0.140900      0.345610 
 H268  H    -0.099210      0.431205     -0.305800 
 H269  H    -0.120938      0.321301     -0.288824 
 H270  H    -0.054095      0.406349     -0.180755 
 H271  H     0.024533      0.334078     -0.210361 
 H272  H     0.035297      0.439629     -0.237057 
 H273  H     0.339793      0.221550      0.264935 
 H274  H     0.365664      0.154678      0.195678 
 H275  H     0.286038      0.120538      0.255198 
 N276  N     0.004570      0.002081     -0.172206 
 C277  C    -0.067923      0.054486     -0.198190 
 C278  C     0.087283      0.047513     -0.191524 
 C279  C    -0.000825     -0.083306     -0.205346 
 C280  C     0.081349      0.051016     -0.276763 
 H281  H     0.092432      0.113262     -0.171620 
 H282  H     0.145891      0.006604     -0.172032 
 C283  C    -0.075846      0.053119     -0.285111 
 H284  H    -0.131353      0.034563     -0.180406 
 H285  H    -0.058713      0.121115     -0.175381 
 C286  C    -0.008152     -0.081101     -0.285565 
 H287  H     0.056017     -0.120225     -0.184757 
 H288  H    -0.061788     -0.108247     -0.184958 
 H289  H    -0.132969      0.012529     -0.307177 
 H290  H    -0.073669      0.118143     -0.304129 
 H291  H     0.077525      0.119594     -0.294594 
 H292  H     0.127330      0.014220     -0.303680 
 H293  H    -0.066922     -0.114514     -0.302504 
 N294  N    -0.005360      0.008157     -0.308828 
 H295  H     0.041022     -0.122959     -0.309677 
 C296  C     0.169627      0.265150     -0.466655 
 C297  C     0.186093      0.183815     -0.496422 
 C298  C     0.261875      0.168395      0.467963 
 C299  C     0.314656      0.239460      0.453815 
 C300  C     0.298702      0.318095      0.493007 
 C301  C     0.227899      0.332730     -0.464277 
 O302  O     0.279853      0.081995      0.436002 
 C303  C     0.298129      0.004474      0.480419 
 C304  C     0.383384      0.011412     -0.474838 
 C305  C     0.466573     -0.013626      0.485654 
 C306  C     0.478748     -0.111079      0.477272 
 O307  O     0.204609      0.410030     -0.427308 
 C308  C     0.206037      0.492467     -0.465147 
 C309  C     0.185609     -0.432418     -0.416765 
 C310  C     0.097167     -0.437848     -0.383715 
 C311  C     0.074011     -0.346432     -0.356803 
 H312  H     0.374962      0.224239      0.430434 
 H313  H     0.114322      0.279556     -0.442480 
 H314  H     0.272145     -0.493060     -0.481793 
 H315  H     0.167681      0.483814      0.483357 
 H316  H     0.241605     -0.013824     -0.487613 
 H317  H     0.296335     -0.052073      0.440984 
 H318  H     0.240306     -0.414230     -0.378378 
 H319  H     0.176918     -0.379356     -0.453819 
 H320  H     0.393728      0.076667     -0.453302 
 H321  H     0.381337     -0.037207     -0.432755 
 H322  H     0.457192      0.015128      0.430784 
 H323  H    -0.476504      0.020759     -0.485521 
 H324  H     0.042582     -0.452290     -0.426084 
 H325  H     0.098177     -0.487688     -0.344763 
 H326  H     0.097728     -0.340208     -0.301223 
 H327  H     0.098632     -0.290035     -0.386251 
 H328  H     0.004828     -0.336222     -0.356776 
 H329  H     0.423830     -0.147301      0.445963 
 H330  H    -0.457073     -0.125892      0.456579 
 H331  H     0.476165     -0.143358     -0.470626 
 C332  C     0.322250     -0.261553     -0.440228 
 C333  C     0.331569     -0.301378      0.494333 
 C334  C     0.278159     -0.278890      0.435335 
 C335  C     0.210873     -0.217159      0.445756 
 C336  C     0.193739     -0.187035     -0.490589 
 C337  C     0.250286     -0.202918     -0.433784 
 O338  O     0.295430     -0.302482      0.368460 
 C339  C     0.226126     -0.333413      0.320668 
 C340  C     0.251201     -0.354791      0.245313 
 C341  C     0.179485     -0.399778      0.196658 
 C342  C     0.107284     -0.332927      0.166605 
 O343  O     0.235484     -0.161367     -0.370973 
 C344  C     0.282286     -0.187949     -0.306723 
 C345  C     0.261823     -0.135589     -0.241102 
 C346  C     0.333500     -0.146935     -0.180375 
 C347  C     0.296879     -0.109564     -0.112734 
 H348  H     0.177462     -0.185024      0.400444 
 H349  H     0.367412     -0.283452     -0.396730 
 H350  H     0.264121     -0.257370     -0.301218 
 H351  H     0.355699     -0.189462     -0.311617 
 H352  H     0.203529     -0.392633      0.347370 
 H353  H     0.174093     -0.287299      0.316854 
 H354  H     0.257993     -0.064649     -0.255510 
 H355  H     0.195526     -0.157058     -0.228229 
 H356  H     0.269922     -0.289559      0.226578 
 H357  H     0.309375     -0.399238      0.246781 
 H358  H     0.208290     -0.433136      0.151598 
 H359  H     0.153241     -0.447798      0.230040 
 H360  H     0.353787     -0.216249     -0.176478 
 H361  H     0.388664     -0.112221     -0.199814 
 H362  H     0.239024     -0.144399     -0.104702 
 H363  H     0.342333     -0.109699     -0.065080 
 H364  H     0.274437     -0.041576     -0.115022 
 H365  H     0.138720     -0.273732      0.139129 
 H366  H     0.059803     -0.364801      0.129455 
 H367  H     0.085545     -0.299625      0.211872 
 N368  N    -0.491234     -0.484113     -0.183834 
 C369  C     0.418564     -0.479913     -0.218251 
 C370  C    -0.440076     -0.413088     -0.218942 
 C371  C    -0.455802      0.429863     -0.208711 
 C372  C    -0.439834     -0.421876     -0.299393 
 H373  H    -0.471484     -0.351209     -0.205214 
 H374  H    -0.372576     -0.417888     -0.196360 
 C375  C     0.418574     -0.475001     -0.301987 
 H376  H     0.382406      0.461819     -0.199545 
 H377  H     0.389719     -0.420480     -0.197388 
 C378  C    -0.462881      0.420841     -0.292574 
 H379  H    -0.389842      0.417373     -0.181398 
 H380  H    -0.491919      0.379649     -0.186782 
 H381  H     0.374320      0.471685     -0.319597 
 H382  H     0.392740     -0.411848     -0.323446 
 H383  H    -0.462652     -0.360029     -0.323868 
 H384  H    -0.373690     -0.439200     -0.311628 
 H385  H    -0.498549      0.363974     -0.311159 
 N386  N    -0.498705     -0.496276     -0.325287 
 H387  H    -0.397758      0.411933     -0.309007 
 C388  C    -0.267534     -0.299452     -0.449204 
 C389  C    -0.290326     -0.343569      0.485875 
 C390  C    -0.253238     -0.319034      0.424838 
 C391  C    -0.193433     -0.249043      0.431288 
 C392  C    -0.174369     -0.200346      0.495330 
 C393  C    -0.209435     -0.230241     -0.443783 
 O394  O    -0.267206     -0.363368      0.360772 
 C395  C    -0.225879     -0.335887      0.296835 
 C396  C    -0.161627     -0.408699      0.278939 
 C397  C    -0.098872     -0.433131      0.345359 
 C398  C    -0.020562     -0.373536      0.361413 
 O399  O    -0.191726     -0.184238     -0.380941 
 C400  C    -0.254935     -0.169409     -0.330260 
 C401  C    -0.327602     -0.114772     -0.363379 
 C402  C    -0.393153     -0.081111     -0.315098 
 C403  C    -0.462838     -0.153045     -0.298322 
 H404  H    -0.149296     -0.241697      0.388705 
 H405  H    -0.301865     -0.324549     -0.403196 
 H406  H    -0.281871     -0.233645     -0.316137 
 H407  H    -0.216791     -0.140495     -0.284051 
 H408  H    -0.280602     -0.326058      0.256267 
 H409  H    -0.201416     -0.265262      0.302865 
 H410  H    -0.297063     -0.055411     -0.376374 
 H411  H    -0.359682     -0.138167     -0.414165 
 H412  H    -0.203158     -0.466522      0.262258 
 H413  H    -0.124934     -0.397689      0.233047 
 H414  H    -0.128372     -0.443745      0.392568 
 H415  H    -0.068184     -0.497307      0.336512 
 H416  H    -0.359508     -0.055417     -0.264786 
 H417  H    -0.432640     -0.028600     -0.343096 
 H418  H     0.495864     -0.176552     -0.343977 
 H419  H    -0.434298     -0.210638     -0.268489 
 H420  H     0.487849     -0.116643     -0.267139 
 H421  H     0.007350     -0.385900      0.416333 
 H422  H     0.032353     -0.390746      0.326751 
 H423  H    -0.039465     -0.303493      0.354163 
loop_  
_geom_bond_atom_site_label_1  
_geom_bond_atom_site_label_2  
Cu0   Cu1 
Cu0   O4 
Cu0   O7 
Cu0   O10 
Cu0   O13 
Cu0   N82 
Cu1   O2 
Cu1   O5 
Cu1   O8 
Cu1   O11 
Cu1   N276 
O2   C3 
C3   O4 
C3   C32 
O5   C6 
C6   O7 
C6   C88 
O8   C9 
C9   O10 
C9   C180 
O11   C12 
C12   O13 
C12   C121 
Cu14   Cu15 
Cu14   O18 
Cu14   O21 
Cu14   O24 
Cu14   O27 
Cu14   N174 
Cu15   O16 
Cu15   O19 
Cu15   O22 
Cu15   O25 
Cu15   N368 
O16   C17 
C17   O18 
C17   C124 
O19   C20 
C20   O21 
C20   C177 
O22   C23 
C23   O24 
C23   C85 
O25   C26 
C26   O27 
C26   C29 
C28   C29 
C28   C33 
C28   H45 
C29   C30 
C30   C31 
C30   O34 
C31   C32 
C31   H44 
C32   C33 
C33   O39 
O34   C35 
C35   C36 
C35   H48 
C35   H49 
C36   C37 
C36   H52 
C36   H53 
C37   C38 
C37   H54 
C37   H55 
C38   H61 
C38   H62 
C38   H63 
O39   C40 
C40   C41 
C40   H46 
C40   H47 
C41   C42 
C41   H50 
C41   H51 
C42   C43 
C42   H56 
C42   H57 
C43   H58 
C43   H59 
C43   H60 
N64   C65 
N64   C66 
N64   C67 
N64   Cu213 
C65   C71 
C65   H72 
C65   H73 
C66   C68 
C66   H69 
C66   H70 
C67   C74 
C67   H75 
C67   H76 
C68   H79 
C68   H80 
C68   N82 
C71   H77 
C71   H78 
C71   N82 
C74   H81 
C74   N82 
C74   H83 
C84   C85 
C84   C89 
C84   H101 
C85   C86 
C86   C87 
C86   O90 
C87   C88 
C87   H100 
C88   C89 
C89   O95 
O90   C91 
C91   C92 
C91   H104 
C91   H105 
C92   C93 
C92   H108 
C92   H109 
C93   C94 
C93   H110 
C93   H111 
C94   H117 
C94   H118 
C94   H119 
O95   C96 
C96   C97 
C96   H102 
C96   H103 
C97   C98 
C97   H106 
C97   H107 
C98   C99 
C98   H112 
C98   H113 
C99   H114 
C99   H115 
C99   H116 
C120   C121 
C120   C125 
C120   H137 
C121   C122 
C122   C123 
C122   O126 
C123   C124 
C123   H136 
C124   C125 
C125   O131 
O126   C127 
C127   C128 
C127   H140 
C127   H141 
C128   C129 
C128   H144 
C128   H145 
C129   C130 
C129   H146 
C129   H147 
C130   H153 
C130   H154 
C130   H155 
O131   C132 
C132   C133 
C132   H138 
C132   H139 
C133   C134 
C133   H142 
C133   H143 
C134   C135 
C134   H148 
C134   H149 
C135   H150 
C135   H151 
C135   H152 
N156   C157 
N156   C158 
N156   C159 
N156   Cu227 
C157   C163 
C157   H164 
C157   H165 
C158   C160 
C158   H161 
C158   H162 
C159   C166 
C159   H167 
C159   H168 
C160   H171 
C160   H172 
C160   N174 
C163   H169 
C163   H170 
C163   N174 
C166   H173 
C166   N174 
C166   H175 
C176   C177 
C176   C181 
C176   H193 
C177   C178 
C178   C179 
C178   O182 
C179   C180 
C179   H192 
C180   C181 
C181   O187 
O182   C183 
C183   C184 
C183   H196 
C183   H197 
C184   C185 
C184   H200 
C184   H201 
C185   C186 
C185   H202 
C185   H203 
C186   H209 
C186   H210 
C186   H211 
O187   C188 
C188   C189 
C188   H194 
C188   H195 
C189   C190 
C189   H198 
C189   H199 
C190   C191 
C190   H204 
C190   H205 
C191   H206 
C191   H207 
C191   H208 
Cu212   Cu213 
Cu212   O216 
Cu212   O219 
Cu212   O222 
Cu212   O225 
Cu212   N294 
Cu213   O214 
Cu213   O217 
Cu213   O220 
Cu213   O223 
O214   C215 
C215   O216 
C215   C244 
O217   C218 
C218   O219 
C218   C297 
O220   C221 
C221   O222 
C221   C392 
O223   C224 
C224   O225 
C224   C336 
Cu226   Cu227 
Cu226   O230 
Cu226   O233 
Cu226   O236 
Cu226   O239 
Cu226   N386 
Cu227   O228 
Cu227   O231 
Cu227   O234 
Cu227   O237 
O228   C229 
C229   O230 
C229   C333 
O231   C232 
C232   O233 
C232   C389 
O234   C235 
C235   O236 
C235   C300 
O237   C238 
C238   O239 
C238   C241 
C240   C241 
C240   C245 
C240   H257 
C241   C242 
C242   C243 
C242   O246 
C243   C244 
C243   H256 
C244   C245 
C245   O251 
O246   C247 
C247   C248 
C247   H260 
C247   H261 
C248   C249 
C248   H264 
C248   H265 
C249   C250 
C249   H266 
C249   H267 
C250   H273 
C250   H274 
C250   H275 
O251   C252 
C252   C253 
C252   H258 
C252   H259 
C253   C254 
C253   H262 
C253   H263 
C254   C255 
C254   H268 
C254   H269 
C255   H270 
C255   H271 
C255   H272 
N276   C277 
N276   C278 
N276   C279 
C277   C283 
C277   H284 
C277   H285 
C278   C280 
C278   H281 
C278   H282 
C279   C286 
C279   H287 
C279   H288 
C280   H291 
C280   H292 
C280   N294 
C283   H289 
C283   H290 
C283   N294 
C286   H293 
C286   N294 
C286   H295 
C296   C297 
C296   C301 
C296   H313 
C297   C298 
C298   C299 
C298   O302 
C299   C300 
C299   H312 
C300   C301 
C301   O307 
O302   C303 
C303   C304 
C303   H316 
C303   H317 
C304   C305 
C304   H320 
C304   H321 
C305   C306 
C305   H322 
C305   H323 
C306   H329 
C306   H330 
C306   H331 
O307   C308 
C308   C309 
C308   H314 
C308   H315 
C309   C310 
C309   H318 
C309   H319 
C310   C311 
C310   H324 
C310   H325 
C311   H326 
C311   H327 
C311   H328 
C332   C333 
C332   C337 
C332   H349 
C333   C334 
C334   C335 
C334   O338 
C335   C336 
C335   H348 
C336   C337 
C337   O343 
O338   C339 
C339   C340 
C339   H352 
C339   H353 
C340   C341 
C340   H356 
C340   H357 
C341   C342 
C341   H358 
C341   H359 
C342   H365 
C342   H366 
C342   H367 
O343   C344 
C344   C345 
C344   H350 
C344   H351 
C345   C346 
C345   H354 
C345   H355 
C346   C347 
C346   H360 
C346   H361 
C347   H362 
C347   H363 
C347   H364 
N368   C369 
N368   C370 
N368   C371 
C369   C375 
C369   H376 
C369   H377 
C370   C372 
C370   H373 
C370   H374 
C371   C378 
C371   H379 
C371   H380 
C372   H383 
C372   H384 
C372   N386 
C375   H381 
C375   H382 
C375   N386 
C378   H385 
C378   N386 
C378   H387 
C388   C389 
C388   C393 
C388   H405 
C389   C390 
C390   C391 
C390   O394 
C391   C392 
C391   H404 
C392   C393 
C393   O399 
O394   C395 
C395   C396 
C395   H408 
C395   H409 
C396   C397 
C396   H412 
C396   H413 
C397   C398 
C397   H414 
C397   H415 
C398   H421 
C398   H422 
C398   H423 
O399   C400 
C400   C401 
C400   H406 
C400   H407 
C401   C402 
C401   H410 
C401   H411 
C402   C403 
C402   H416 
C402   H417 
C403   H418 
C403   H419 
C403   H420 
  
#END  
