data_
_symmetry_cell_setting           triclinic 
_symmetry_space_group_name_H-M   'P 1' 
_symmetry_Int_Tables_number      1 
loop_ 
_symmetry_equiv_pos_site_id 
_symmetry_equiv_pos_as_xyz 
1 x,y,z 
_cell_length_a             18.347848        
_cell_length_b             10.845511        
_cell_length_c             18.925338        
_cell_angle_alpha          91.797962        
_cell_angle_beta           85.049142        
_cell_angle_gamma          89.761476        
loop_  
_atom_site_label   
_atom_site_type_symbol  
_atom_site_fract_x  
_atom_site_fract_y  
_atom_site_fract_z 
 Cu0  Cu    -0.002221     -0.015376      0.068103 
 Cu1  Cu     0.007613      0.002327     -0.069220 
 O2  O    -0.068223      0.132335     -0.054020 
 C3  C    -0.100812      0.152164      0.007390 
 O4  O    -0.076193      0.122494      0.065547 
 O5  O     0.084997      0.124124     -0.055178 
 C6  C     0.114080      0.130045      0.003578 
 O7  O     0.085545      0.091651      0.062465 
 O8  O    -0.072354     -0.119954     -0.060957 
 C9  C    -0.104783     -0.149276     -0.001821 
 O10  O    -0.083031     -0.128348      0.059238 
 O11  O     0.083420     -0.128151     -0.069010 
 C12  C     0.104239     -0.163503     -0.010470 
 O13  O     0.065903     -0.157052      0.048833 
 Cu14  Cu     0.496866      0.496593      0.068694 
 Cu15  Cu    -0.490853     -0.482603     -0.068357 
 O16  O     0.436082     -0.349697     -0.053007 
 C17  C     0.398332     -0.341878      0.006508 
 O18  O     0.419658     -0.374363      0.065544 
 O19  O    -0.416395     -0.358982     -0.053891 
 C20  C    -0.392705     -0.344565      0.006843 
 O21  O    -0.423282     -0.380832      0.065410 
 O22  O     0.426985      0.398860     -0.066301 
 C23  C     0.396348      0.361545     -0.008008 
 O24  O     0.421658      0.372731      0.052392 
 O25  O    -0.413135      0.387360     -0.064829 
 C26  C    -0.391334      0.353550     -0.006295 
 O27  O    -0.427392      0.366553      0.053955 
 C28  C    -0.304726      0.216431      0.047458 
 C29  C    -0.315719      0.300944     -0.004985 
 C30  C    -0.257087      0.340881     -0.050953 
 C31  C    -0.186599      0.295029     -0.043644 
 C32  C    -0.175776      0.208446      0.008076 
 C33  C    -0.234724      0.167676      0.053714 
 O34  O    -0.272268      0.422877     -0.101302 
 C35  C    -0.216161     -0.498935     -0.132029 
 C36  C    -0.253662     -0.411574     -0.178921 
 C37  C    -0.203516     -0.314118     -0.214014 
 C38  C    -0.241627     -0.239439     -0.267905 
 O39  O    -0.222884      0.079514      0.101995 
 C40  C    -0.284719      0.013675      0.133548 
 C41  C    -0.257727     -0.083699      0.181211 
 C42  C    -0.318431     -0.164036      0.216080 
 C43  C    -0.289805     -0.252178      0.269263 
 H44  H    -0.140729      0.323982     -0.079769 
 H45  H    -0.351133      0.189058      0.083484 
 H46  H    -0.322085      0.078291      0.164835 
 H47  H    -0.314443     -0.029621      0.091345 
 H48  H    -0.190709     -0.447748     -0.089667 
 H49  H    -0.173542      0.445713     -0.163053 
 H50  H    -0.217122     -0.143571      0.150401 
 H51  H    -0.229168     -0.037901      0.223360 
 H52  H    -0.279156     -0.465378     -0.220298 
 H53  H    -0.298665     -0.364017     -0.146577 
 H54  H    -0.184649     -0.251373     -0.172623 
 H55  H    -0.154065     -0.358944     -0.240197 
 H56  H    -0.361556     -0.104521      0.243236 
 H57  H    -0.344305     -0.217314      0.174620 
 H58  H    -0.263932     -0.201377      0.311535 
 H59  H    -0.334262     -0.306567      0.295015 
 H60  H    -0.248917     -0.316849      0.243186 
 H61  H    -0.259991     -0.299252     -0.310779 
 H62  H    -0.289781     -0.189810     -0.242459 
 H63  H    -0.204759     -0.170930     -0.292921 
 N64  N    -0.000575     -0.027316      0.317700 
 C65  C    -0.006736      0.099030      0.291547 
 C66  C     0.066549     -0.085865      0.282592 
 C67  C    -0.064115     -0.098970      0.296407 
 C68  C     0.063087     -0.093106      0.200540 
 H69  H     0.114383     -0.032258      0.296779 
 H70  H     0.072685     -0.179065      0.303136 
 C71  C    -0.008344      0.095595      0.209395 
 H72  H    -0.057112      0.143016      0.316679 
 H73  H     0.039323      0.154931      0.307874 
 C74  C    -0.067128     -0.099839      0.214237 
 H75  H    -0.059371     -0.193973      0.314601 
 H76  H    -0.114815     -0.059211      0.323658 
 H77  H    -0.059172      0.139185      0.194997 
 H78  H     0.037139      0.148996      0.184389 
 H79  H     0.111451     -0.050540      0.172922 
 H80  H     0.063049     -0.190300      0.181631 
 H81  H    -0.117296     -0.054489      0.200175 
 N82  N    -0.004328     -0.032972      0.180616 
 H83  H    -0.067380     -0.194984      0.191887 
 C84  C     0.201147      0.282475     -0.044674 
 C85  C     0.188691      0.185262      0.001358 
 C86  C     0.243588      0.143897      0.042517 
 C87  C     0.311120      0.204057      0.037234 
 C88  C     0.323300      0.301721     -0.008411 
 C89  C     0.268791      0.342358     -0.050027 
 O90  O     0.231659      0.044833      0.085364 
 C91  C     0.283321      0.020199      0.136484 
 C92  C     0.347541     -0.058609      0.104785 
 C93  C     0.413311     -0.064684      0.149745 
 C94  C     0.453134      0.058059      0.159389 
 O95  O     0.281589      0.441573     -0.092483 
 C96  C     0.230204      0.467857     -0.143288 
 C97  C     0.167472     -0.449414     -0.112055 
 C98  C     0.101511     -0.440213     -0.156723 
 C99  C     0.055674      0.442200     -0.159712 
 H100  H     0.355515      0.175228      0.068096 
 H101  H     0.156565      0.312778     -0.074866 
 H102  H     0.261018     -0.486459     -0.187455 
 H103  H     0.209946      0.380636     -0.164552 
 H104  H     0.301933      0.107928      0.159080 
 H105  H     0.253451     -0.028819      0.179938 
 H106  H     0.148360     -0.476081     -0.057935 
 H107  H     0.190282     -0.356788     -0.107009 
 H108  H     0.326684     -0.152579      0.099164 
 H109  H     0.366176     -0.030347      0.050889 
 H110  H     0.394760     -0.100331      0.201994 
 H111  H     0.452466     -0.133654      0.124740 
 H112  H     0.066099     -0.363536     -0.134694 
 H113  H     0.120596     -0.414541     -0.210980 
 H114  H     0.033550      0.415994     -0.106500 
 H115  H     0.009156      0.454724     -0.191754 
 H116  H     0.088399      0.364211     -0.183333 
 H117  H     0.417266      0.127452      0.188209 
 H118  H    -0.499077      0.046034      0.189811 
 H119  H     0.472818      0.095976      0.108036 
 C120  C     0.193100     -0.294699      0.043424 
 C121  C     0.180875     -0.210131     -0.008558 
 C122  C     0.238439     -0.170631     -0.056083 
 C123  C     0.309733     -0.210565     -0.047482 
 C124  C     0.321654     -0.296534      0.003749 
 C125  C     0.263725     -0.340941      0.048780 
 O126  O     0.222660     -0.096155     -0.109890 
 C127  C     0.279239     -0.065461     -0.163328 
 C128  C     0.307332     -0.176720     -0.209943 
 C129  C     0.252486     -0.231766     -0.258826 
 C130  C     0.243965     -0.156114     -0.324467 
 O131  O     0.279318     -0.429570      0.095110 
 C132  C     0.222613     -0.475649      0.143631 
 C133  C     0.203156     -0.380949      0.203700 
 C134  C     0.269262     -0.340104      0.242710 
 C135  C     0.249831     -0.244911      0.302605 
 H136  H     0.356408     -0.175683     -0.080564 
 H137  H     0.146911     -0.326756      0.078068 
 H138  H     0.175031      0.497218      0.115180 
 H139  H     0.244450      0.439594      0.164354 
 H140  H     0.254644      0.002651     -0.195862 
 H141  H     0.323549     -0.018478     -0.137666 
 H142  H     0.178061     -0.298433      0.183406 
 H143  H     0.161211     -0.419495      0.241730 
 H144  H     0.357101     -0.149956     -0.242442 
 H145  H     0.324353     -0.250702     -0.176623 
 H146  H     0.270133     -0.325828     -0.276268 
 H147  H     0.199091     -0.241443     -0.228396 
 H148  H     0.294577     -0.420962      0.264482 
 H149  H     0.310990     -0.301348      0.204503 
 H150  H     0.208920     -0.280882      0.342487 
 H151  H     0.298725     -0.220521      0.329368 
 H152  H     0.227636     -0.159720      0.282744 
 H153  H     0.294980     -0.154262     -0.359328 
 H154  H     0.201385     -0.194693     -0.355787 
 H155  H     0.228810     -0.060523     -0.309830 
 N156  N     0.499446     -0.497129      0.319622 
 C157  C     0.438851      0.427026      0.295818 
 C158  C     0.490055     -0.370268      0.295006 
 C159  C    -0.431139      0.451249      0.285637 
 C160  C     0.490600     -0.370456      0.212615 
 H161  H     0.437969     -0.331696      0.319782 
 H162  H    -0.466146     -0.311133      0.313248 
 C163  C     0.438780      0.426984      0.213266 
 H164  H     0.444677      0.332066      0.313909 
 H165  H     0.386862      0.464067      0.321692 
 C166  C    -0.431055      0.450976      0.203279 
 H167  H    -0.385293     -0.494141      0.303500 
 H168  H    -0.423976      0.356501      0.303558 
 H169  H     0.444689      0.332277      0.190615 
 H170  H     0.386693      0.463511      0.197353 
 H171  H     0.439299     -0.330710      0.196895 
 H172  H    -0.464656     -0.312644      0.189772 
 H173  H    -0.423999      0.355944      0.181270 
 N174  N     0.499496     -0.497513      0.182248 
 H175  H    -0.384917     -0.494812      0.179702 
 C176  C    -0.230159     -0.142399     -0.037095 
 C177  C    -0.177333     -0.207669     -0.004146 
 C178  C    -0.193861     -0.315357      0.032894 
 C179  C    -0.266819     -0.351973      0.042268 
 C180  C    -0.319669     -0.287109      0.008958 
 C181  C    -0.302779     -0.180449     -0.028979 
 O182  O    -0.142985     -0.385374      0.062777 
 C183  C    -0.076110     -0.416875      0.020108 
 C184  C    -0.036856      0.481627      0.055722 
 C185  C    -0.007666     -0.476022      0.126017 
 C186  C     0.025891      0.418071      0.164163 
 O187  O    -0.353543     -0.115731     -0.062063 
 C188  C    -0.413714     -0.062310     -0.017397 
 C189  C    -0.477406     -0.035368     -0.061054 
 C190  C    -0.459480      0.054917     -0.120926 
 C191  C     0.473547      0.088886     -0.159489 
 H192  H    -0.280285     -0.436414      0.070295 
 H193  H    -0.216839     -0.057221     -0.064330 
 H194  H    -0.431512     -0.123322      0.026120 
 H195  H    -0.394547      0.023834      0.006806 
 H196  H    -0.088885     -0.447596     -0.033386 
 H197  H    -0.039972     -0.336498      0.014354 
 H198  H    -0.496976     -0.122883     -0.083473 
 H199  H     0.476815      0.002425     -0.025321 
 H200  H    -0.073938      0.403083      0.064797 
 H201  H     0.009205      0.446219      0.019457 
 H202  H     0.033277     -0.403490      0.115653 
 H203  H    -0.052284     -0.432696      0.160889 
 H204  H    -0.435916      0.139612     -0.098993 
 H205  H    -0.416896      0.014139     -0.159261 
 H206  H     0.431297      0.134899     -0.123015 
 H207  H     0.488361      0.152256     -0.202439 
 H208  H     0.449236      0.006472     -0.182863 
 H209  H     0.069818      0.371213      0.130153 
 H210  H     0.048790      0.451195      0.212945 
 H211  H    -0.015699      0.348773      0.178852 
 Cu212  Cu    -0.002529     -0.002308     -0.432204 
 Cu213  Cu     0.010703     -0.002322      0.430011 
 O214  O    -0.067229      0.121985      0.445606 
 C215  C    -0.094779      0.158364     -0.493249 
 O216  O    -0.064966      0.146089     -0.435596 
 O217  O     0.088472      0.125148      0.442305 
 C218  C     0.116402      0.135961     -0.498448 
 O219  O     0.088048      0.096657     -0.439694 
 O220  O    -0.067874     -0.130063      0.442123 
 C221  C    -0.108968     -0.138147      0.499575 
 O222  O    -0.092916     -0.099454     -0.439551 
 O223  O     0.087504     -0.126468      0.431136 
 C224  C     0.101878     -0.164418      0.491242 
 O225  O     0.061338     -0.151210     -0.450838 
 Cu226  Cu    -0.499830     -0.488267     -0.430197 
 Cu227  Cu    -0.493368      0.496753      0.432026 
 O228  O     0.425886     -0.380115      0.446079 
 C229  C     0.390208     -0.359946     -0.493911 
 O230  O     0.409537     -0.391620     -0.434074 
 O231  O    -0.419491     -0.372329      0.431516 
 C232  C    -0.400629     -0.329157      0.490468 
 O233  O    -0.435818     -0.342190     -0.449152 
 O234  O     0.432113      0.367548      0.448324 
 C235  C     0.407154      0.338372     -0.489650 
 O236  O     0.438658      0.359964     -0.433249 
 O237  O    -0.411934      0.377806      0.438912 
 C238  C    -0.382930      0.369414      0.497290 
 O239  O    -0.410699      0.410970     -0.442779 
 C240  C    -0.275785      0.320977     -0.437739 
 C241  C    -0.308493      0.312469      0.498054 
 C242  C    -0.273067      0.251035      0.438481 
 C243  C    -0.203362      0.201469      0.443955 
 C244  C    -0.170894      0.209372     -0.491754 
 C245  C    -0.208457      0.263388     -0.430789 
 O246  O    -0.307820      0.241973      0.377312 
 C247  C    -0.278370      0.163597      0.319279 
 C248  C    -0.220998      0.232253      0.272532 
 C249  C    -0.252412      0.343071      0.236622 
 C250  C    -0.195986      0.407871      0.186647 
 O251  O    -0.178331      0.257202     -0.367022 
 C252  C    -0.214866      0.311660     -0.303193 
 C253  C    -0.282474      0.240177     -0.275384 
 C254  C    -0.267823      0.107664     -0.254125 
 C255  C    -0.232735      0.098674     -0.184090 
 H256  H    -0.174312      0.155717      0.397663 
 H257  H    -0.303002      0.371955     -0.392433 
 H258  H    -0.174504      0.313955     -0.263440 
 H259  H    -0.228737      0.408214     -0.312833 
 H260  H    -0.256536      0.077680      0.339110 
 H261  H    -0.324682      0.136732      0.288969 
 H262  H    -0.309489      0.290860     -0.228965 
 H263  H    -0.322669      0.237010     -0.315149 
 H264  H    -0.176471      0.264653      0.303683 
 H265  H    -0.195293      0.168293      0.231361 
 H266  H    -0.298022      0.312055      0.206539 
 H267  H    -0.275444      0.409708      0.277687 
 H268  H    -0.320154      0.058236     -0.248914 
 H269  H    -0.233637      0.059368     -0.297110 
 H270  H    -0.224011      0.001661     -0.172149 
 H271  H    -0.179845      0.145807     -0.185384 
 H272  H    -0.268479      0.139490     -0.139826 
 H273  H    -0.220766      0.486216      0.161999 
 H274  H    -0.150371      0.443491      0.214900 
 H275  H    -0.173055      0.344649      0.143877 
 N276  N     0.005410     -0.003083     -0.183089 
 C277  C     0.072833     -0.056986     -0.219748 
 C278  C    -0.057091     -0.076161     -0.205202 
 C279  C    -0.001983      0.124688     -0.206753 
 C280  C    -0.062554     -0.069524     -0.286701 
 H281  H    -0.049595     -0.172735     -0.190487 
 H282  H    -0.107821     -0.042150     -0.175624 
 C283  C     0.068156     -0.059663     -0.301633 
 H284  H     0.119910     -0.002092     -0.204904 
 H285  H     0.080664     -0.151004     -0.201115 
 C286  C    -0.003341      0.126533     -0.288964 
 H287  H    -0.052540      0.166496     -0.180643 
 H288  H     0.043930      0.179530     -0.189302 
 H289  H     0.115089     -0.011804     -0.328343 
 H290  H     0.069946     -0.155804     -0.322470 
 H291  H    -0.063624     -0.162844     -0.311402 
 H292  H    -0.113507     -0.022607     -0.297889 
 H293  H     0.043302      0.178887     -0.312907 
 N294  N    -0.000259     -0.000536     -0.319797 
 H295  H    -0.053320      0.173041     -0.303183 
 C296  C     0.236322      0.143602     -0.446925 
 C297  C     0.191280      0.190319     -0.496075 
 C298  C     0.215772      0.286384      0.460409 
 C299  C     0.285406      0.335602      0.466989 
 C300  C     0.330768      0.288417     -0.484680 
 C301  C     0.304636      0.196476     -0.438525 
 O302  O     0.170486      0.331528      0.413605 
 C303  C     0.202574      0.397265      0.354329 
 C304  C     0.256437      0.312656      0.309576 
 C305  C     0.221851      0.193059      0.283944 
 C306  C     0.171478      0.213715      0.225003 
 O307  O     0.343014      0.152427     -0.386040 
 C308  C     0.355933      0.241500     -0.330912 
 C309  C     0.311779      0.214197     -0.261646 
 C310  C     0.228472      0.208852     -0.266174 
 C311  C     0.195859      0.320589     -0.300180 
 H312  H     0.304965      0.411768      0.434092 
 H313  H     0.218502      0.067785     -0.413211 
 H314  H     0.414826      0.240178     -0.324115 
 H315  H     0.341586      0.334393     -0.347127 
 H316  H     0.157552      0.425049      0.323410 
 H317  H     0.227993      0.482952      0.372704 
 H318  H     0.331557      0.126191     -0.242980 
 H319  H     0.324116      0.284239     -0.221114 
 H320  H     0.280216      0.362009      0.263357 
 H321  H     0.303139      0.287905      0.339131 
 H322  H     0.265762      0.127294      0.266023 
 H323  H     0.191005      0.149241      0.328853 
 H324  H     0.215216      0.125655     -0.296772 
 H325  H     0.201267      0.197403     -0.212637 
 H326  H     0.136289      0.312324     -0.299935 
 H327  H     0.207689      0.408293     -0.273384 
 H328  H     0.217585      0.327857     -0.355601 
 H329  H     0.200607      0.255467      0.178721 
 H330  H     0.149399      0.126121      0.206431 
 H331  H     0.125253      0.274510      0.243359 
 C332  C     0.236049     -0.148375      0.466249 
 C333  C     0.176620     -0.216481      0.494805 
 C334  C     0.185587     -0.327862     -0.471796 
 C335  C     0.256465     -0.370459     -0.463958 
 C336  C     0.315970     -0.304127     -0.494319 
 C337  C     0.307039     -0.193541      0.470917 
 O338  O     0.122675     -0.389275     -0.451858 
 C339  C     0.122217     -0.480538     -0.399201 
 C340  C     0.043888      0.474734     -0.384548 
 C341  C    -0.013617     -0.421027     -0.377394 
 C342  C    -0.092094     -0.468157     -0.366693 
 O343  O     0.369532     -0.138398      0.442523 
 C344  C     0.367289     -0.024512      0.406080 
 C345  C     0.434510     -0.021518      0.352891 
 C346  C    -0.491500     -0.029938      0.385005 
 C347  C    -0.472714      0.085948      0.427863 
 H348  H     0.264909     -0.456919     -0.437779 
 H349  H     0.226481     -0.061312      0.440982 
 H350  H     0.317592     -0.016713      0.377861 
 H351  H     0.366932      0.052455      0.445404 
 H352  H     0.158146      0.442666     -0.419641 
 H353  H     0.143365     -0.439877     -0.351021 
 H354  H     0.431024     -0.098787      0.314260 
 H355  H     0.432948      0.063301      0.322542 
 H356  H     0.030940      0.409302     -0.427289 
 H357  H     0.039372      0.421497     -0.335841 
 H358  H    -0.002420     -0.358000     -0.333000 
 H359  H    -0.008673     -0.365551     -0.425350 
 H360  H    -0.490895     -0.110919      0.418734 
 H361  H    -0.448058     -0.046956      0.341957 
 H362  H     0.486458      0.104672      0.472863 
 H363  H    -0.419232      0.076148      0.449199 
 H364  H    -0.470279      0.167797      0.394987 
 H365  H    -0.100542      0.480710     -0.317559 
 H366  H    -0.131617     -0.391397     -0.364038 
 H367  H    -0.104715      0.469919     -0.411017 
 N368  N    -0.492413     -0.456900     -0.179787 
 C369  C    -0.459793     -0.342139     -0.208390 
 C370  C    -0.449568      0.437141     -0.211996 
 C371  C     0.432753     -0.467048     -0.202563 
 C372  C    -0.454552      0.430439     -0.293662 
 H373  H    -0.392332      0.448420     -0.199711 
 H374  H    -0.469201      0.350639     -0.188140 
 C375  C    -0.451353     -0.349892     -0.291360 
 H376  H    -0.495817     -0.264306     -0.189152 
 H377  H    -0.406655     -0.325212     -0.187096 
 C378  C     0.433498     -0.451041     -0.284069 
 H379  H     0.411357      0.441170     -0.188850 
 H380  H     0.396406     -0.399073     -0.172900 
 H381  H    -0.472276     -0.265875     -0.313891 
 H382  H    -0.393276     -0.358782     -0.311470 
 H383  H    -0.399224      0.421331     -0.320737 
 H384  H    -0.485481      0.348490     -0.309023 
 H385  H     0.410409     -0.360417     -0.295315 
 N386  N    -0.490737     -0.457964     -0.317676 
 H387  H     0.398958      0.479286     -0.307777 
 C388  C    -0.269321     -0.332652      0.448483 
 C389  C    -0.326750     -0.271181      0.488706 
 C390  C    -0.314781     -0.164093     -0.470713 
 C391  C    -0.242631     -0.124234     -0.465494 
 C392  C    -0.184919     -0.186467      0.494894 
 C393  C    -0.197711     -0.289230      0.450926 
 O394  O    -0.375530     -0.103021     -0.439833 
 C395  C    -0.366424      0.007692     -0.398601 
 C396  C    -0.439461      0.072285     -0.377043 
 C397  C    -0.499634     -0.009137     -0.341691 
 C398  C     0.459787     -0.088964     -0.393805 
 O399  O    -0.138561     -0.341490      0.412156 
 C400  C    -0.144400     -0.459289      0.376887 
 C401  C    -0.072249     -0.483615      0.332481 
 C402  C    -0.003899     -0.471787      0.373709 
 C403  C     0.001564      0.429100      0.428872 
 H404  H    -0.231338     -0.043307     -0.432468 
 H405  H    -0.280364     -0.415702      0.417100 
 H406  H    -0.155840      0.469720      0.416691 
 H407  H    -0.189724     -0.458393      0.342397 
 H408  H    -0.339673     -0.018463     -0.351469 
 H409  H    -0.330102      0.070652     -0.429461 
 H410  H    -0.073117      0.423412      0.307479 
 H411  H    -0.067633     -0.418599      0.288826 
 H412  H    -0.429453      0.149543     -0.340170 
 H413  H    -0.459999      0.115237     -0.423444 
 H414  H    -0.475672     -0.067191     -0.302972 
 H415  H     0.460008      0.050327     -0.310667 
 H416  H     0.045075     -0.476497      0.335895 
 H417  H    -0.002778     -0.379752      0.400013 
 H418  H    -0.045300      0.432945      0.469119 
 H419  H     0.003978      0.335859      0.404273 
 H420  H     0.051211      0.441621      0.456657 
 H421  H     0.431594     -0.031957     -0.430079 
 H422  H     0.496676     -0.151226     -0.426807 
 H423  H     0.418461     -0.146602     -0.365697 
loop_  
_geom_bond_atom_site_label_1  
_geom_bond_atom_site_label_2  
Cu0   Cu1 
Cu0   O4 
Cu0   O7 
Cu0   O10 
Cu0   O13 
Cu0   N82 
Cu1   O2 
Cu1   O5 
Cu1   O8 
Cu1   O11 
Cu1   N276 
O2   C3 
C3   O4 
C3   C32 
O5   C6 
C6   O7 
C6   C85 
O8   C9 
C9   O10 
C9   C177 
O11   C12 
C12   O13 
C12   C121 
Cu14   Cu15 
Cu14   O18 
Cu14   O21 
Cu14   O24 
Cu14   O27 
Cu14   N174 
Cu15   O16 
Cu15   O19 
Cu15   O22 
Cu15   O25 
Cu15   N368 
O16   C17 
C17   O18 
C17   C124 
O19   C20 
C20   O21 
C20   C180 
O22   C23 
C23   O24 
C23   C88 
O25   C26 
C26   O27 
C26   C29 
C28   C29 
C28   C33 
C28   H45 
C29   C30 
C30   C31 
C30   O34 
C31   C32 
C31   H44 
C32   C33 
C33   O39 
O34   C35 
C35   C36 
C35   H48 
C35   H49 
C36   C37 
C36   H52 
C36   H53 
C37   C38 
C37   H54 
C37   H55 
C38   H61 
C38   H62 
C38   H63 
O39   C40 
C40   C41 
C40   H46 
C40   H47 
C41   C42 
C41   H50 
C41   H51 
C42   C43 
C42   H56 
C42   H57 
C43   H58 
C43   H59 
C43   H60 
N64   C65 
N64   C66 
N64   C67 
N64   Cu213 
C65   C71 
C65   H72 
C65   H73 
C66   C68 
C66   H69 
C66   H70 
C67   C74 
C67   H75 
C67   H76 
C68   H79 
C68   H80 
C68   N82 
C71   H77 
C71   H78 
C71   N82 
C74   H81 
C74   N82 
C74   H83 
C84   C85 
C84   C89 
C84   H101 
C85   C86 
C86   C87 
C86   O90 
C87   C88 
C87   H100 
C88   C89 
C89   O95 
O90   C91 
C91   C92 
C91   H104 
C91   H105 
C92   C93 
C92   H108 
C92   H109 
C93   C94 
C93   H110 
C93   H111 
C94   H117 
C94   H118 
C94   H119 
O95   C96 
C96   C97 
C96   H102 
C96   H103 
C97   C98 
C97   H106 
C97   H107 
C98   C99 
C98   H112 
C98   H113 
C99   H114 
C99   H115 
C99   H116 
C120   C121 
C120   C125 
C120   H137 
C121   C122 
C122   C123 
C122   O126 
C123   C124 
C123   H136 
C124   C125 
C125   O131 
O126   C127 
C127   C128 
C127   H140 
C127   H141 
C128   C129 
C128   H144 
C128   H145 
C129   C130 
C129   H146 
C129   H147 
C130   H153 
C130   H154 
C130   H155 
O131   C132 
C132   C133 
C132   H138 
C132   H139 
C133   C134 
C133   H142 
C133   H143 
C134   C135 
C134   H148 
C134   H149 
C135   H150 
C135   H151 
C135   H152 
N156   C157 
N156   C158 
N156   C159 
N156   Cu227 
C157   C163 
C157   H164 
C157   H165 
C158   C160 
C158   H161 
C158   H162 
C159   C166 
C159   H167 
C159   H168 
C160   H171 
C160   H172 
C160   N174 
C163   H169 
C163   H170 
C163   N174 
C166   H173 
C166   N174 
C166   H175 
C176   C177 
C176   C181 
C176   H193 
C177   C178 
C178   C179 
C178   O182 
C179   C180 
C179   H192 
C180   C181 
C181   O187 
O182   C183 
C183   C184 
C183   H196 
C183   H197 
C184   C185 
C184   H200 
C184   H201 
C185   C186 
C185   H202 
C185   H203 
C186   H209 
C186   H210 
C186   H211 
O187   C188 
C188   C189 
C188   H194 
C188   H195 
C189   C190 
C189   H198 
C189   H199 
C190   C191 
C190   H204 
C190   H205 
C191   H206 
C191   H207 
C191   H208 
Cu212   Cu213 
Cu212   O216 
Cu212   O219 
Cu212   O222 
Cu212   O225 
Cu212   N294 
Cu213   O214 
Cu213   O217 
Cu213   O220 
Cu213   O223 
O214   C215 
C215   O216 
C215   C244 
O217   C218 
C218   O219 
C218   C297 
O220   C221 
C221   O222 
C221   C392 
O223   C224 
C224   O225 
C224   C333 
Cu226   Cu227 
Cu226   O230 
Cu226   O233 
Cu226   O236 
Cu226   O239 
Cu226   N386 
Cu227   O228 
Cu227   O231 
Cu227   O234 
Cu227   O237 
O228   C229 
C229   O230 
C229   C336 
O231   C232 
C232   O233 
C232   C389 
O234   C235 
C235   O236 
C235   C300 
O237   C238 
C238   O239 
C238   C241 
C240   C241 
C240   C245 
C240   H257 
C241   C242 
C242   C243 
C242   O246 
C243   C244 
C243   H256 
C244   C245 
C245   O251 
O246   C247 
C247   C248 
C247   H260 
C247   H261 
C248   C249 
C248   H264 
C248   H265 
C249   C250 
C249   H266 
C249   H267 
C250   H273 
C250   H274 
C250   H275 
O251   C252 
C252   C253 
C252   H258 
C252   H259 
C253   C254 
C253   H262 
C253   H263 
C254   C255 
C254   H268 
C254   H269 
C255   H270 
C255   H271 
C255   H272 
N276   C277 
N276   C278 
N276   C279 
C277   C283 
C277   H284 
C277   H285 
C278   C280 
C278   H281 
C278   H282 
C279   C286 
C279   H287 
C279   H288 
C280   H291 
C280   H292 
C280   N294 
C283   H289 
C283   H290 
C283   N294 
C286   H293 
C286   N294 
C286   H295 
C296   C297 
C296   C301 
C296   H313 
C297   C298 
C298   C299 
C298   O302 
C299   C300 
C299   H312 
C300   C301 
C301   O307 
O302   C303 
C303   C304 
C303   H316 
C303   H317 
C304   C305 
C304   H320 
C304   H321 
C305   C306 
C305   H322 
C305   H323 
C306   H329 
C306   H330 
C306   H331 
O307   C308 
C308   C309 
C308   H314 
C308   H315 
C309   C310 
C309   H318 
C309   H319 
C310   C311 
C310   H324 
C310   H325 
C311   H326 
C311   H327 
C311   H328 
C332   C333 
C332   C337 
C332   H349 
C333   C334 
C334   C335 
C334   O338 
C335   C336 
C335   H348 
C336   C337 
C337   O343 
O338   C339 
C339   C340 
C339   H352 
C339   H353 
C340   C341 
C340   H356 
C340   H357 
C341   C342 
C341   H358 
C341   H359 
C342   H365 
C342   H366 
C342   H367 
O343   C344 
C344   C345 
C344   H350 
C344   H351 
C345   C346 
C345   H354 
C345   H355 
C346   C347 
C346   H360 
C346   H361 
C347   H362 
C347   H363 
C347   H364 
N368   C369 
N368   C370 
N368   C371 
C369   C375 
C369   H376 
C369   H377 
C370   C372 
C370   H373 
C370   H374 
C371   C378 
C371   H379 
C371   H380 
C372   H383 
C372   H384 
C372   N386 
C375   H381 
C375   H382 
C375   N386 
C378   H385 
C378   N386 
C378   H387 
C388   C389 
C388   C393 
C388   H405 
C389   C390 
C390   C391 
C390   O394 
C391   C392 
C391   H404 
C392   C393 
C393   O399 
O394   C395 
C395   C396 
C395   H408 
C395   H409 
C396   C397 
C396   H412 
C396   H413 
C397   C398 
C397   H414 
C397   H415 
C398   H421 
C398   H422 
C398   H423 
O399   C400 
C400   C401 
C400   H406 
C400   H407 
C401   C402 
C401   H410 
C401   H411 
C402   C403 
C402   H416 
C402   H417 
C403   H418 
C403   H419 
C403   H420 
  
#END  
