data_
_symmetry_cell_setting           triclinic 
_symmetry_space_group_name_H-M   'P 1' 
_symmetry_Int_Tables_number      1 
loop_ 
_symmetry_equiv_pos_site_id 
_symmetry_equiv_pos_as_xyz 
1 x,y,z 
_cell_length_a             14.256027        
_cell_length_b             16.454549        
_cell_length_c             19.191424        
_cell_angle_alpha          88.583086        
_cell_angle_beta           89.267320        
_cell_angle_gamma          89.576724        
loop_  
_atom_site_label   
_atom_site_type_symbol  
_atom_site_fract_x  
_atom_site_fract_y  
_atom_site_fract_z 
 Cu0  Cu    -0.002392     -0.007462      0.070253 
 Cu1  Cu    -0.003592     -0.002670     -0.065566 
 O2  O    -0.112646      0.071773     -0.053474 
 C3  C    -0.127148      0.106768      0.004203 
 O4  O    -0.086837      0.088546      0.061435 
 O5  O     0.082316      0.092153     -0.054727 
 C6  C     0.122609      0.105425      0.002775 
 O7  O     0.106911      0.067318      0.060278 
 O8  O    -0.088721     -0.098066     -0.056079 
 C9  C    -0.127811     -0.116736      0.002243 
 O10  O    -0.111202     -0.082523      0.059666 
 O11  O     0.105281     -0.078341     -0.057842 
 C12  C     0.119985     -0.117873     -0.001075 
 O13  O     0.082819     -0.101950      0.057859 
 Cu14  Cu     0.496286      0.493025      0.071258 
 Cu15  Cu     0.495819      0.494327     -0.064453 
 O16  O     0.406503     -0.413788     -0.055671 
 C17  C     0.367694     -0.398448      0.002865 
 O18  O     0.383461     -0.436620      0.060109 
 O19  O    -0.398244     -0.427510     -0.057505 
 C20  C    -0.384893     -0.390162     -0.001134 
 O21  O    -0.424416     -0.407643      0.057290 
 O22  O     0.389738      0.416571     -0.052141 
 C23  C     0.375926      0.378645      0.005796 
 O24  O     0.416724      0.393476      0.062840 
 O25  O    -0.414669      0.402107     -0.051432 
 C26  C    -0.375466      0.386161      0.006737 
 O27  O    -0.390225      0.423919      0.063007 
 C28  C    -0.324264      0.255131     -0.041562 
 C29  C    -0.309958      0.314396      0.008222 
 C30  C    -0.238597      0.305553      0.057749 
 C31  C    -0.180212      0.236482      0.055834 
 C32  C    -0.194214      0.177463      0.005619 
 C33  C    -0.267895      0.185038     -0.041994 
 O34  O    -0.227745      0.366758      0.104287 
 C35  C    -0.170977      0.355485      0.165104 
 C36  C    -0.221290      0.300394      0.218441 
 C37  C    -0.165830      0.282570      0.285341 
 C38  C    -0.149656      0.356947      0.330248 
 O39  O    -0.282630      0.123423     -0.087236 
 C40  C    -0.371419      0.119219     -0.121274 
 C41  C    -0.378974      0.036645     -0.154668 
 C42  C    -0.376954     -0.035550     -0.102210 
 C43  C    -0.386345     -0.118236     -0.136536 
 H44  H    -0.122827      0.229155      0.092631 
 H45  H    -0.380622      0.262884     -0.079210 
 H46  H    -0.428825      0.127819     -0.083035 
 H47  H    -0.375702      0.168309     -0.161241 
 H48  H    -0.101086      0.331923      0.150764 
 H49  H    -0.160448      0.416251      0.186303 
 H50  H    -0.444332      0.034825     -0.184582 
 H51  H    -0.321092      0.029954     -0.192644 
 H52  H    -0.289575      0.327650      0.232397 
 H53  H    -0.237461      0.242202      0.194405 
 H54  H    -0.203602      0.236156      0.316779 
 H55  H    -0.097902      0.254797      0.271545 
 H56  H    -0.311019     -0.034621     -0.072844 
 H57  H    -0.433796     -0.028205     -0.063426 
 H58  H    -0.451669     -0.121815     -0.166017 
 H59  H    -0.327460     -0.129701     -0.172588 
 H60  H    -0.386939     -0.167889     -0.097138 
 H61  H    -0.216527      0.384660      0.346701 
 H62  H    -0.111480      0.339608      0.377847 
 H63  H    -0.108289      0.403737      0.302295 
 N64  N     0.002225     -0.010250      0.320867 
 C65  C    -0.036041     -0.087404      0.295585 
 C66  C    -0.057623      0.056914      0.293785 
 C67  C     0.097941     -0.000379      0.291142 
 C68  C    -0.058388      0.058160      0.212268 
 H69  H    -0.129429      0.049092      0.314886 
 H70  H    -0.031931      0.114943      0.313448 
 C71  C    -0.038316     -0.086765      0.214046 
 H72  H     0.007162     -0.138316      0.315936 
 H73  H    -0.107321     -0.096009      0.317423 
 C74  C     0.096028     -0.000239      0.209729 
 H75  H     0.127974      0.056702      0.309485 
 H76  H     0.143144     -0.050109      0.311196 
 H77  H     0.003242     -0.137784      0.193321 
 H78  H    -0.110699     -0.094509      0.195896 
 H79  H    -0.130676      0.052932      0.193208 
 H80  H    -0.030747      0.116247      0.191044 
 H81  H     0.139733     -0.050116      0.189393 
 N82  N    -0.000928     -0.009377      0.184619 
 H83  H     0.125464      0.056895      0.188054 
 C84  C     0.165032      0.246261     -0.030795 
 C85  C     0.192365      0.173234      0.002262 
 C86  C     0.279360      0.166699      0.036026 
 C87  C     0.336220      0.235564      0.039614 
 C88  C     0.308763      0.308691      0.006560 
 C89  C     0.222130      0.315243     -0.027263 
 O90  O     0.313381      0.097074      0.067492 
 C91  C     0.317920      0.025523      0.025967 
 C92  C     0.385574     -0.037115      0.057501 
 C93  C     0.352983     -0.077884      0.126698 
 C94  C     0.352070     -0.022324      0.189763 
 O95  O     0.196337      0.389922     -0.054331 
 C96  C     0.103405      0.400878     -0.081037 
 C97  C     0.084264      0.491108     -0.094423 
 C98  C     0.155788     -0.466683     -0.143420 
 C99  C     0.128890     -0.378654     -0.162869 
 H100  H     0.403383      0.230055      0.066113 
 H101  H     0.097624      0.249725     -0.057234 
 H102  H     0.097630      0.366848     -0.129536 
 H103  H     0.051762      0.376353     -0.042941 
 H104  H     0.247829     -0.001269      0.022486 
 H105  H     0.340703      0.043129     -0.027348 
 H106  H     0.013544      0.498373     -0.116164 
 H107  H     0.082815     -0.477606     -0.044278 
 H108  H     0.396998     -0.085041      0.019124 
 H109  H     0.454476     -0.008868      0.064560 
 H110  H     0.282400     -0.102990      0.119886 
 H111  H     0.398936     -0.130569      0.137878 
 H112  H     0.224550     -0.467392     -0.117843 
 H113  H     0.164571      0.498100     -0.191127 
 H114  H     0.122222     -0.341402     -0.116245 
 H115  H     0.182325     -0.350444     -0.197210 
 H116  H     0.061673     -0.375516     -0.190241 
 H117  H     0.421717      0.003494      0.198297 
 H118  H     0.302367      0.028469      0.182956 
 H119  H     0.331318     -0.056047      0.237594 
 C120  C     0.181604     -0.243232      0.056102 
 C121  C     0.184589     -0.190356     -0.002261 
 C122  C     0.245821     -0.205406     -0.058596 
 C123  C     0.303724     -0.274657     -0.055369 
 C124  C     0.301314     -0.327085      0.003212 
 C125  C     0.240353     -0.311909      0.059609 
 O126  O     0.248596     -0.151912     -0.114684 
 C127  C     0.308683     -0.169848     -0.173052 
 C128  C     0.297640     -0.103439     -0.228997 
 C129  C     0.354003     -0.120315     -0.295985 
 C130  C     0.343440     -0.053532     -0.352578 
 O131  O     0.240290     -0.365700      0.115454 
 C132  C     0.182550     -0.352877      0.176148 
 C133  C     0.225285     -0.288479      0.221899 
 C134  C     0.169411     -0.272966      0.289410 
 C135  C     0.169574     -0.344699      0.342121 
 H136  H     0.352238     -0.287401     -0.098266 
 H137  H     0.132902     -0.231072      0.098990 
 H138  H     0.110311     -0.337234      0.160842 
 H139  H     0.179122     -0.411821      0.204442 
 H140  H     0.381999     -0.173205     -0.155608 
 H141  H     0.289364     -0.229280     -0.193673 
 H142  H     0.297439     -0.306620      0.235414 
 H143  H     0.231910     -0.230598      0.192286 
 H144  H     0.223038     -0.096937     -0.242072 
 H145  H     0.319059     -0.044725     -0.208046 
 H146  H     0.428653     -0.127946     -0.283174 
 H147  H     0.331649     -0.178693     -0.317040 
 H148  H     0.198640     -0.219341      0.314346 
 H149  H     0.096684     -0.256494      0.276281 
 H150  H     0.137117     -0.399067      0.321081 
 H151  H     0.241339     -0.361217      0.357620 
 H152  H     0.130638     -0.329171      0.389853 
 H153  H     0.385067     -0.068085     -0.399238 
 H154  H     0.270052     -0.046486     -0.368807 
 H155  H     0.367300      0.005565     -0.334444 
 N156  N    -0.492439      0.495285      0.321270 
 C157  C     0.431812     -0.451267      0.294019 
 C158  C    -0.402407     -0.475727      0.291167 
 C159  C     0.491381      0.412168      0.296435 
 C160  C    -0.404299     -0.476381      0.209670 
 H161  H    -0.389482     -0.413789      0.309326 
 H162  H    -0.345068      0.485428      0.311467 
 C163  C     0.429559     -0.452596      0.212586 
 H164  H     0.364131     -0.471401      0.316717 
 H165  H     0.443187     -0.388856      0.311676 
 C166  C     0.489648      0.411216      0.215015 
 H167  H    -0.452967      0.371411      0.316528 
 H168  H     0.424411      0.389767      0.318556 
 H169  H     0.361072     -0.474488      0.194991 
 H170  H     0.438652     -0.390818      0.189966 
 H171  H    -0.392253     -0.414724      0.187736 
 H172  H    -0.347632      0.484679      0.189078 
 H173  H     0.421867      0.388193      0.197125 
 N174  N    -0.495594      0.493846      0.185035 
 H175  H    -0.455665      0.370104      0.194577 
 C176  C    -0.195210     -0.236806     -0.055734 
 C177  C    -0.196531     -0.186056      0.001935 
 C178  C    -0.261012     -0.200399      0.056822 
 C179  C    -0.321000     -0.267648      0.054856 
 C180  C    -0.318880     -0.318939     -0.002399 
 C181  C    -0.255729     -0.303449     -0.057943 
 O182  O    -0.263245     -0.148323      0.111314 
 C183  C    -0.349665     -0.138640      0.149322 
 C184  C    -0.348860     -0.056024      0.183230 
 C185  C    -0.334401      0.015146      0.130760 
 C186  C    -0.348010      0.098653      0.163032 
 O187  O    -0.254183     -0.349875     -0.115969 
 C188  C    -0.173309     -0.401313     -0.124127 
 C189  C    -0.175804     -0.440440     -0.195274 
 C190  C    -0.172979     -0.379379     -0.257296 
 C191  C    -0.172344     -0.420043     -0.328407 
 H192  H    -0.369250     -0.279709      0.098450 
 H193  H    -0.147422     -0.225714     -0.099735 
 H194  H    -0.108713     -0.365810     -0.118533 
 H195  H    -0.174851     -0.448097     -0.081991 
 H196  H    -0.409596     -0.142527      0.113821 
 H197  H    -0.355770     -0.187993      0.188956 
 H198  H    -0.116087     -0.482912     -0.199818 
 H199  H    -0.239329     -0.477760     -0.198255 
 H200  H    -0.415570     -0.047394      0.211754 
 H201  H    -0.293269     -0.055037      0.222543 
 H202  H    -0.263407      0.011206      0.107644 
 H203  H    -0.383031      0.009380      0.087097 
 H204  H    -0.233737     -0.337833     -0.254016 
 H205  H    -0.110353     -0.341037     -0.253446 
 H206  H    -0.236056     -0.455880     -0.335791 
 H207  H    -0.168778     -0.374442     -0.371205 
 H208  H    -0.111728     -0.461081     -0.334150 
 H209  H    -0.419807      0.105980      0.183333 
 H210  H    -0.299492      0.107274      0.206210 
 H211  H    -0.335927      0.147682      0.124094 
 Cu212  Cu     0.007816     -0.004976     -0.429524 
 Cu213  Cu     0.005571     -0.002622      0.434698 
 O214  O    -0.104584      0.071981      0.450281 
 C215  C    -0.116343      0.108531     -0.492307 
 O216  O    -0.076342      0.089515     -0.435312 
 O217  O     0.089713      0.092923      0.438563 
 C218  C     0.127927      0.111012      0.495709 
 O219  O     0.116014      0.072016     -0.446512 
 O220  O    -0.076794     -0.099152      0.447647 
 C221  C    -0.115214     -0.117900     -0.493884 
 O222  O    -0.100580     -0.082027     -0.436872 
 O223  O     0.116133     -0.076905      0.443683 
 C224  C     0.133584     -0.112688     -0.498221 
 O225  O     0.093814     -0.097997     -0.440056 
 Cu226  Cu    -0.493051      0.495404     -0.428367 
 Cu227  Cu    -0.494006      0.498235      0.435789 
 O228  O     0.427364     -0.402755      0.446647 
 C229  C     0.389488     -0.386089     -0.494879 
 O230  O     0.403739     -0.424295     -0.437393 
 O231  O    -0.379592     -0.431896      0.444308 
 C232  C    -0.363991     -0.395966     -0.498907 
 O233  O    -0.402904     -0.413529     -0.440331 
 O234  O     0.392034      0.427740      0.450617 
 C235  C     0.376810      0.389585     -0.491629 
 O236  O     0.416363      0.404775     -0.434324 
 O237  O    -0.416306      0.398742      0.444164 
 C238  C    -0.377160      0.379473     -0.498479 
 O239  O    -0.389173      0.415546     -0.440960 
 C240  C    -0.242938      0.305570     -0.445776 
 C241  C    -0.311472      0.308044     -0.497204 
 C242  C    -0.318299      0.245072      0.455234 
 C243  C    -0.252021      0.182057      0.456366 
 C244  C    -0.183112      0.179446     -0.492206 
 C245  C    -0.178983      0.240397     -0.441949 
 O246  O    -0.388140      0.243646      0.407377 
 C247  C    -0.464871      0.191620      0.427112 
 C248  C     0.457012      0.200501      0.374155 
 C249  C     0.485532      0.177191      0.299766 
 C250  C     0.404938      0.185916      0.247864 
 O251  O    -0.112201      0.236363     -0.390925 
 C252  C    -0.120595      0.290709     -0.333516 
 C253  C    -0.048651      0.268690     -0.278007 
 C254  C     0.054300      0.278901     -0.301311 
 C255  C     0.083226      0.367407     -0.315566 
 H256  H    -0.256856      0.134706      0.417766 
 H257  H    -0.239316      0.355298     -0.409226 
 H258  H    -0.110276      0.353672     -0.352771 
 H259  H    -0.191956      0.285979     -0.311023 
 H260  H    -0.439506      0.128267      0.430710 
 H261  H    -0.490729      0.208471      0.479234 
 H262  H    -0.061908      0.305930     -0.231931 
 H263  H    -0.059921      0.205376     -0.260290 
 H264  H     0.397178      0.162932      0.391772 
 H265  H     0.431589      0.263800      0.373723 
 H266  H    -0.455245      0.215119      0.281614 
 H267  H    -0.488382      0.114051      0.300567 
 H268  H     0.099646      0.252180     -0.260657 
 H269  H     0.067647      0.243393     -0.348393 
 H270  H     0.043306      0.395147     -0.358696 
 H271  H     0.071896      0.404639     -0.269427 
 H272  H     0.158012      0.371031     -0.329955 
 H273  H     0.379613      0.249012      0.243795 
 H274  H     0.427122      0.168037      0.195337 
 H275  H     0.345194      0.147576      0.263749 
 N276  N    -0.007694     -0.009828     -0.179292 
 C277  C    -0.098207      0.019774     -0.207296 
 C278  C     0.067589      0.043405     -0.207761 
 C279  C     0.008478     -0.093051     -0.204951 
 C280  C     0.069422      0.043028     -0.289222 
 H281  H     0.055953      0.105704     -0.189371 
 H282  H     0.135540      0.022626     -0.186704 
 C283  C    -0.096623      0.019376     -0.288805 
 H284  H    -0.154955     -0.019011     -0.185887 
 H285  H    -0.112000      0.081658     -0.188704 
 C286  C     0.010711     -0.093087     -0.286495 
 H287  H     0.074815     -0.117211     -0.183771 
 H288  H    -0.047560     -0.133079     -0.184319 
 H289  H    -0.152197     -0.019941     -0.308374 
 H290  H    -0.110500      0.080935     -0.310273 
 H291  H     0.059241      0.104975     -0.311037 
 H292  H     0.138188      0.021621     -0.308623 
 H293  H    -0.043541     -0.133658     -0.306364 
 N294  N    -0.004903     -0.010017     -0.315555 
 H295  H     0.078716     -0.116298     -0.305807 
 C296  C     0.265262      0.303807      0.444304 
 C297  C     0.309564      0.319294     -0.492791 
 C298  C     0.294014      0.267425     -0.434617 
 C299  C     0.234532      0.200612     -0.439987 
 C300  C     0.191503      0.184010      0.496674 
 C301  C     0.207274      0.235590      0.437950 
 O302  O     0.331836      0.281307     -0.371087 
 C303  C     0.408208      0.228749     -0.351356 
 C304  C     0.409990      0.220275     -0.272101 
 C305  C     0.322589      0.178974     -0.240130 
 C306  C     0.328021      0.165967     -0.160918 
 O307  O     0.166900      0.218088      0.375495 
 C308  C     0.170829      0.277663      0.319492 
 C309  C     0.127267      0.243126      0.254746 
 C310  C     0.112440      0.306149      0.195262 
 C311  C     0.201809      0.351006      0.171679 
 H312  H     0.222372      0.162557     -0.393424 
 H313  H     0.277542      0.344895      0.399624 
 H314  H     0.132944      0.332786      0.335798 
 H315  H     0.244414      0.293487      0.308123 
 H316  H     0.401299      0.168864     -0.375218 
 H317  H     0.473551      0.256196     -0.371918 
 H318  H     0.171682      0.193101      0.235650 
 H319  H     0.059214      0.216026      0.269037 
 H320  H     0.472756      0.185408     -0.256394 
 H321  H     0.417339      0.280776     -0.249615 
 H322  H     0.260189      0.216091     -0.252590 
 H323  H     0.312082      0.120032     -0.264690 
 H324  H     0.083006      0.275073      0.150350 
 H325  H     0.059003      0.350777      0.211408 
 H326  H     0.256863      0.308101      0.155515 
 H327  H     0.188078      0.392263      0.126951 
 H328  H     0.230265      0.387893      0.213291 
 H329  H     0.335796      0.224022     -0.134488 
 H330  H     0.264079      0.136845     -0.140029 
 H331  H     0.387829      0.126900     -0.146346 
 C332  C     0.193633     -0.240039     -0.444762 
 C333  C     0.205473     -0.179358     -0.496512 
 C334  C     0.279089     -0.184023      0.454289 
 C335  C     0.337185     -0.252891      0.454622 
 C336  C     0.324364     -0.314229     -0.494238 
 C337  C     0.251909     -0.308867     -0.444301 
 O338  O     0.295666     -0.125940      0.403442 
 C339  C     0.326578     -0.047957      0.426160 
 C340  C     0.430577     -0.051533      0.444196 
 C341  C     0.496049     -0.071784      0.382589 
 C342  C    -0.400091     -0.076503      0.402560 
 O343  O     0.240768     -0.371054     -0.396203 
 C344  C     0.147791     -0.394903     -0.374886 
 C345  C     0.092273     -0.426094     -0.436218 
 C346  C     0.140498     -0.495987     -0.475081 
 C347  C     0.078617      0.467425      0.469110 
 H348  H     0.392952     -0.256665      0.415323 
 H349  H     0.137256     -0.235289     -0.406048 
 H350  H     0.155931     -0.443585     -0.334949 
 H351  H     0.111127     -0.344299     -0.349447 
 H352  H     0.313426     -0.003341      0.383597 
 H353  H     0.284565     -0.028407      0.471402 
 H354  H     0.023157     -0.446597     -0.416832 
 H355  H     0.078002     -0.375712     -0.473555 
 H356  H     0.450938      0.007347      0.465264 
 H357  H     0.441527     -0.096902      0.486539 
 H358  H     0.475220     -0.130154      0.360802 
 H359  H     0.486666     -0.025823      0.340552 
 H360  H     0.206096     -0.473984     -0.499674 
 H361  H     0.161655      0.455934     -0.437495 
 H362  H     0.059897     -0.486931      0.428844 
 H363  H     0.115125      0.417354      0.443110 
 H364  H     0.013251      0.442895      0.491894 
 H365  H    -0.355463     -0.091049      0.357374 
 H366  H    -0.375506     -0.018684      0.422973 
 H367  H    -0.387909     -0.123981      0.442817 
 N368  N     0.492949      0.498485     -0.178420 
 C369  C     0.397803      0.486137     -0.205950 
 C370  C    -0.472239     -0.422835     -0.207089 
 C371  C    -0.445249      0.432959     -0.204540 
 C372  C    -0.473871     -0.421247     -0.288563 
 H373  H     0.484764     -0.372924     -0.185993 
 H374  H    -0.400188     -0.413750     -0.188865 
 C375  C     0.400338      0.483078     -0.287303 
 H376  H     0.368017      0.429671     -0.183143 
 H377  H     0.352519     -0.463457     -0.188721 
 C378  C    -0.440211      0.435694     -0.286006 
 H379  H    -0.374669      0.439184     -0.182537 
 H380  H    -0.472642      0.373948     -0.185200 
 H381  H     0.378023      0.422921     -0.304563 
 H382  H     0.351004     -0.472170     -0.310244 
 H383  H     0.477695     -0.373698     -0.308357 
 H384  H    -0.403785     -0.406433     -0.309996 
 H385  H    -0.458930      0.376303     -0.307079 
 N386  N     0.496099      0.499258     -0.314713 
 H387  H    -0.368055      0.448773     -0.304193 
 C388  C    -0.164375     -0.248762      0.455718 
 C389  C    -0.180002     -0.189871     -0.493751 
 C390  C    -0.255185     -0.197819     -0.446170 
 C391  C    -0.313304     -0.266168     -0.448700 
 C392  C    -0.297957     -0.324884     -0.499363 
 C393  C    -0.222802     -0.317031      0.452878 
 O394  O    -0.269856     -0.137640     -0.399228 
 C395  C    -0.361260     -0.128901     -0.368170 
 C396  C    -0.366830     -0.045596     -0.335679 
 C397  C    -0.353355      0.025463     -0.388369 
 C398  C    -0.358784      0.108890     -0.354747 
 O399  O    -0.209728     -0.376595      0.404923 
 C400  C    -0.117168     -0.392642      0.377891 
 C401  C    -0.101713     -0.351992      0.306337 
 C402  C    -0.170734     -0.379164      0.250816 
 C403  C    -0.147415     -0.345428      0.177478 
 H404  H    -0.371178     -0.273261     -0.411273 
 H405  H    -0.106426     -0.241618      0.418414 
 H406  H    -0.063875     -0.373641      0.415148 
 H407  H    -0.110517     -0.459132      0.374233 
 H408  H    -0.415635     -0.134823     -0.408053 
 H409  H    -0.371566     -0.177352     -0.328184 
 H410  H    -0.105959     -0.285413      0.310213 
 H411  H    -0.029748     -0.365714      0.288515 
 H412  H    -0.435173     -0.038784     -0.309004 
 H413  H    -0.313374     -0.042312     -0.295001 
 H414  H    -0.284975      0.019080     -0.415231 
 H415  H    -0.406788      0.022112     -0.429117 
 H416  H    -0.172004     -0.446030      0.250039 
 H417  H    -0.242033     -0.359579      0.265777 
 H418  H    -0.148769     -0.278591      0.175680 
 H419  H    -0.077447     -0.365237      0.159839 
 H420  H    -0.198246     -0.366408      0.139376 
 H421  H    -0.426062      0.117264     -0.327367 
 H422  H    -0.302404      0.116222     -0.316922 
 H423  H    -0.352011      0.158110     -0.394196 
loop_  
_geom_bond_atom_site_label_1  
_geom_bond_atom_site_label_2  
Cu0   Cu1 
Cu0   O4 
Cu0   O7 
Cu0   O10 
Cu0   O13 
Cu0   N82 
Cu1   O2 
Cu1   O5 
Cu1   O8 
Cu1   O11 
Cu1   N276 
O2   C3 
C3   O4 
C3   C32 
O5   C6 
C6   O7 
C6   C85 
O8   C9 
C9   O10 
C9   C177 
O11   C12 
C12   O13 
C12   C121 
Cu14   Cu15 
Cu14   O18 
Cu14   O21 
Cu14   O24 
Cu14   O27 
Cu14   N174 
Cu15   O16 
Cu15   O19 
Cu15   O22 
Cu15   O25 
Cu15   N368 
O16   C17 
C17   O18 
C17   C124 
O19   C20 
C20   O21 
C20   C180 
O22   C23 
C23   O24 
C23   C88 
O25   C26 
C26   O27 
C26   C29 
C28   C29 
C28   C33 
C28   H45 
C29   C30 
C30   C31 
C30   O34 
C31   C32 
C31   H44 
C32   C33 
C33   O39 
O34   C35 
C35   C36 
C35   H48 
C35   H49 
C36   C37 
C36   H52 
C36   H53 
C37   C38 
C37   H54 
C37   H55 
C38   H61 
C38   H62 
C38   H63 
O39   C40 
C40   C41 
C40   H46 
C40   H47 
C41   C42 
C41   H50 
C41   H51 
C42   C43 
C42   H56 
C42   H57 
C43   H58 
C43   H59 
C43   H60 
N64   C65 
N64   C66 
N64   C67 
N64   Cu213 
C65   C71 
C65   H72 
C65   H73 
C66   C68 
C66   H69 
C66   H70 
C67   C74 
C67   H75 
C67   H76 
C68   H79 
C68   H80 
C68   N82 
C71   H77 
C71   H78 
C71   N82 
C74   H81 
C74   N82 
C74   H83 
C84   C85 
C84   C89 
C84   H101 
C85   C86 
C86   C87 
C86   O90 
C87   C88 
C87   H100 
C88   C89 
C89   O95 
O90   C91 
C91   C92 
C91   H104 
C91   H105 
C92   C93 
C92   H108 
C92   H109 
C93   C94 
C93   H110 
C93   H111 
C94   H117 
C94   H118 
C94   H119 
O95   C96 
C96   C97 
C96   H102 
C96   H103 
C97   C98 
C97   H106 
C97   H107 
C98   C99 
C98   H112 
C98   H113 
C99   H114 
C99   H115 
C99   H116 
C120   C121 
C120   C125 
C120   H137 
C121   C122 
C122   C123 
C122   O126 
C123   C124 
C123   H136 
C124   C125 
C125   O131 
O126   C127 
C127   C128 
C127   H140 
C127   H141 
C128   C129 
C128   H144 
C128   H145 
C129   C130 
C129   H146 
C129   H147 
C130   H153 
C130   H154 
C130   H155 
O131   C132 
C132   C133 
C132   H138 
C132   H139 
C133   C134 
C133   H142 
C133   H143 
C134   C135 
C134   H148 
C134   H149 
C135   H150 
C135   H151 
C135   H152 
N156   C157 
N156   C158 
N156   C159 
N156   Cu227 
C157   C163 
C157   H164 
C157   H165 
C158   C160 
C158   H161 
C158   H162 
C159   C166 
C159   H167 
C159   H168 
C160   H171 
C160   H172 
C160   N174 
C163   H169 
C163   H170 
C163   N174 
C166   H173 
C166   N174 
C166   H175 
C176   C177 
C176   C181 
C176   H193 
C177   C178 
C178   C179 
C178   O182 
C179   C180 
C179   H192 
C180   C181 
C181   O187 
O182   C183 
C183   C184 
C183   H196 
C183   H197 
C184   C185 
C184   H200 
C184   H201 
C185   C186 
C185   H202 
C185   H203 
C186   H209 
C186   H210 
C186   H211 
O187   C188 
C188   C189 
C188   H194 
C188   H195 
C189   C190 
C189   H198 
C189   H199 
C190   C191 
C190   H204 
C190   H205 
C191   H206 
C191   H207 
C191   H208 
Cu212   Cu213 
Cu212   O216 
Cu212   O219 
Cu212   O222 
Cu212   O225 
Cu212   N294 
Cu213   O214 
Cu213   O217 
Cu213   O220 
Cu213   O223 
O214   C215 
C215   O216 
C215   C244 
O217   C218 
C218   O219 
C218   C300 
O220   C221 
C221   O222 
C221   C389 
O223   C224 
C224   O225 
C224   C333 
Cu226   Cu227 
Cu226   O230 
Cu226   O233 
Cu226   O236 
Cu226   O239 
Cu226   N386 
Cu227   O228 
Cu227   O231 
Cu227   O234 
Cu227   O237 
O228   C229 
C229   O230 
C229   C336 
O231   C232 
C232   O233 
C232   C392 
O234   C235 
C235   O236 
C235   C297 
O237   C238 
C238   O239 
C238   C241 
C240   C241 
C240   C245 
C240   H257 
C241   C242 
C242   C243 
C242   O246 
C243   C244 
C243   H256 
C244   C245 
C245   O251 
O246   C247 
C247   C248 
C247   H260 
C247   H261 
C248   C249 
C248   H264 
C248   H265 
C249   C250 
C249   H266 
C249   H267 
C250   H273 
C250   H274 
C250   H275 
O251   C252 
C252   C253 
C252   H258 
C252   H259 
C253   C254 
C253   H262 
C253   H263 
C254   C255 
C254   H268 
C254   H269 
C255   H270 
C255   H271 
C255   H272 
N276   C277 
N276   C278 
N276   C279 
C277   C283 
C277   H284 
C277   H285 
C278   C280 
C278   H281 
C278   H282 
C279   C286 
C279   H287 
C279   H288 
C280   H291 
C280   H292 
C280   N294 
C283   H289 
C283   H290 
C283   N294 
C286   H293 
C286   N294 
C286   H295 
C296   C297 
C296   C301 
C296   H313 
C297   C298 
C298   C299 
C298   O302 
C299   C300 
C299   H312 
C300   C301 
C301   O307 
O302   C303 
C303   C304 
C303   H316 
C303   H317 
C304   C305 
C304   H320 
C304   H321 
C305   C306 
C305   H322 
C305   H323 
C306   H329 
C306   H330 
C306   H331 
O307   C308 
C308   C309 
C308   H314 
C308   H315 
C309   C310 
C309   H318 
C309   H319 
C310   C311 
C310   H324 
C310   H325 
C311   H326 
C311   H327 
C311   H328 
C332   C333 
C332   C337 
C332   H349 
C333   C334 
C334   C335 
C334   O338 
C335   C336 
C335   H348 
C336   C337 
C337   O343 
O338   C339 
C339   C340 
C339   H352 
C339   H353 
C340   C341 
C340   H356 
C340   H357 
C341   C342 
C341   H358 
C341   H359 
C342   H365 
C342   H366 
C342   H367 
O343   C344 
C344   C345 
C344   H350 
C344   H351 
C345   C346 
C345   H354 
C345   H355 
C346   C347 
C346   H360 
C346   H361 
C347   H362 
C347   H363 
C347   H364 
N368   C369 
N368   C370 
N368   C371 
C369   C375 
C369   H376 
C369   H377 
C370   C372 
C370   H373 
C370   H374 
C371   C378 
C371   H379 
C371   H380 
C372   H383 
C372   H384 
C372   N386 
C375   H381 
C375   H382 
C375   N386 
C378   H385 
C378   N386 
C378   H387 
C388   C389 
C388   C393 
C388   H405 
C389   C390 
C390   C391 
C390   O394 
C391   C392 
C391   H404 
C392   C393 
C393   O399 
O394   C395 
C395   C396 
C395   H408 
C395   H409 
C396   C397 
C396   H412 
C396   H413 
C397   C398 
C397   H414 
C397   H415 
C398   H421 
C398   H422 
C398   H423 
O399   C400 
C400   C401 
C400   H406 
C400   H407 
C401   C402 
C401   H410 
C401   H411 
C402   C403 
C402   H416 
C402   H417 
C403   H418 
C403   H419 
C403   H420 
  
#END  
