data_
_symmetry_cell_setting           triclinic 
_symmetry_space_group_name_H-M   'P 1' 
_symmetry_Int_Tables_number      1 
loop_ 
_symmetry_equiv_pos_site_id 
_symmetry_equiv_pos_as_xyz 
1 x,y,z 
_cell_length_a             14.430710        
_cell_length_b             16.280566        
_cell_length_c             19.190568        
_cell_angle_alpha          91.741542        
_cell_angle_beta           86.914493        
_cell_angle_gamma          89.928675        
loop_  
_atom_site_label   
_atom_site_type_symbol  
_atom_site_fract_x  
_atom_site_fract_y  
_atom_site_fract_z 
 Cu0  Cu     0.018561      0.002479      0.063480 
 Cu1  Cu     0.008690     -0.010278     -0.072342 
 O2  O    -0.106505      0.057954     -0.054210 
 C3  C    -0.131171      0.093710      0.003705 
 O4  O    -0.097459      0.074974      0.063481 
 O5  O     0.086602      0.092928     -0.066030 
 C6  C     0.123711      0.122061     -0.009921 
 O7  O     0.109901      0.091934      0.052502 
 O8  O    -0.061406     -0.107627     -0.053845 
 C9  C    -0.099365     -0.121680      0.005715 
 O10  O    -0.076393     -0.088485      0.063240 
 O11  O     0.120532     -0.082131     -0.070463 
 C12  C     0.143045     -0.113448     -0.011033 
 O13  O     0.115072     -0.085264      0.048938 
 Cu14  Cu    -0.488957     -0.495235      0.071938 
 Cu15  Cu    -0.491696      0.491543     -0.064574 
 O16  O     0.407430     -0.426319     -0.055703 
 C17  C     0.373482     -0.397430      0.002771 
 O18  O     0.395689     -0.421214      0.061454 
 O19  O    -0.395116     -0.415615     -0.066615 
 C20  C    -0.376645     -0.382290     -0.008543 
 O21  O    -0.399972     -0.407095      0.051830 
 O22  O     0.420975      0.403707     -0.059906 
 C23  C     0.389136      0.388506      0.001666 
 O24  O     0.420672      0.414247      0.058874 
 O25  O    -0.378131      0.416782     -0.056084 
 C26  C    -0.350625      0.391102      0.003162 
 O27  O    -0.376148      0.427180      0.059666 
 C28  C    -0.290817      0.258754     -0.053166 
 C29  C    -0.297783      0.312359      0.005889 
 C30  C    -0.256376      0.287945      0.066649 
 C31  C    -0.210792      0.214343      0.069433 
 C32  C    -0.201484      0.163541      0.006169 
 C33  C    -0.252776      0.180773     -0.050921 
 O34  O    -0.264957      0.335914      0.125461 
 C35  C    -0.209148      0.326324      0.181942 
 C36  C    -0.206994      0.405475      0.226861 
 C37  C    -0.198848      0.483033      0.186568 
 C38  C    -0.104374      0.492776      0.153334 
 O39  O    -0.245843      0.131607     -0.108565 
 C40  C    -0.319373      0.129741     -0.160335 
 C41  C    -0.415033      0.107090     -0.122150 
 C42  C    -0.494107      0.158185     -0.149533 
 C43  C    -0.498949      0.151049     -0.230958 
 H44  H    -0.168973      0.202188      0.112681 
 H45  H    -0.305694      0.279880     -0.105871 
 H46  H    -0.316783      0.189492     -0.187917 
 H47  H    -0.306249      0.086352     -0.203611 
 H48  H    -0.230084      0.273568      0.216393 
 H49  H    -0.134705      0.317613      0.157064 
 H50  H    -0.433313      0.044329     -0.133458 
 H51  H    -0.411701      0.120299     -0.065842 
 H52  H    -0.279077      0.409182      0.252846 
 H53  H    -0.158488      0.408395      0.267680 
 H54  H    -0.249157      0.475019      0.146841 
 H55  H    -0.217541     -0.462751      0.221860 
 H56  H     0.442944      0.140303     -0.122583 
 H57  H    -0.490851      0.227170     -0.135672 
 H58  H    -0.437196      0.180699     -0.255387 
 H59  H     0.496706      0.086397     -0.249884 
 H60  H     0.438274      0.188215     -0.243974 
 H61  H    -0.093134      0.435237      0.120602 
 H62  H    -0.097051     -0.449084      0.130445 
 H63  H    -0.061542      0.492092      0.197212 
 N64  N     0.024268     -0.006327      0.316387 
 C65  C    -0.021830     -0.075784      0.284068 
 C66  C    -0.023478      0.072356      0.298005 
 C67  C     0.121022     -0.001534      0.286005 
 C68  C    -0.007855      0.080530      0.214926 
 H69  H    -0.099618      0.060901      0.308386 
 H70  H    -0.000863      0.131860      0.321480 
 C71  C    -0.029852     -0.063327      0.202311 
 H72  H     0.015023     -0.136978      0.291141 
 H73  H    -0.093815     -0.083431      0.308731 
 C74  C     0.123652     -0.005915      0.203347 
 H75  H     0.146447      0.059553      0.302834 
 H76  H     0.169735     -0.039203      0.310631 
 H77  H    -0.000204     -0.118234      0.176103 
 H78  H    -0.102088     -0.051914      0.181802 
 H79  H    -0.079540      0.097557      0.192710 
 H80  H     0.042360      0.130194      0.201238 
 H81  H     0.153451     -0.063862      0.182332 
 N82  N     0.027370      0.004125      0.178952 
 H83  H     0.163085      0.042098      0.177104 
 C84  C     0.316285      0.263737      0.054800 
 C85  C     0.307046      0.327394      0.005745 
 C86  C     0.240714      0.318531     -0.046133 
 C87  C     0.190965      0.244574     -0.058016 
 C88  C     0.199308      0.184912     -0.007222 
 C89  C     0.270311      0.190640      0.042648 
 O90  O     0.214474      0.371247     -0.097397 
 C91  C     0.194687      0.456137     -0.069732 
 C92  C     0.096107      0.452529     -0.035686 
 C93  C     0.022713      0.407709     -0.078957 
 C94  C    -0.069828      0.390163     -0.036757 
 O95  O     0.291228      0.126346      0.084531 
 C96  C     0.311184      0.046961      0.060619 
 C97  C     0.414708      0.026913      0.045528 
 C98  C     0.482670      0.039921      0.103832 
 C99  C    -0.416534      0.011291      0.086022 
 H100  H     0.127694      0.247259     -0.088579 
 H101  H     0.378798      0.255780      0.083427 
 H102  H     0.294054      0.001681      0.099999 
 H103  H     0.272328      0.031535      0.012759 
 H104  H     0.243954      0.480772     -0.033520 
 H105  H     0.200037     -0.495533     -0.111295 
 H106  H     0.420231     -0.041344      0.029171 
 H107  H     0.434278      0.059559     -0.005115 
 H108  H     0.098426      0.420670      0.014539 
 H109  H     0.073917     -0.484677     -0.025939 
 H110  H     0.011667      0.450590     -0.120265 
 H111  H     0.051125      0.353123     -0.103647 
 H112  H     0.484908      0.101495      0.122247 
 H113  H     0.455067      0.004261      0.145123 
 H114  H    -0.386466      0.047471      0.043635 
 H115  H    -0.371929      0.005696      0.131546 
 H116  H    -0.419213     -0.052102      0.065886 
 H117  H    -0.119278      0.361061     -0.074660 
 H118  H    -0.062453      0.342595      0.003721 
 H119  H    -0.106786      0.446071     -0.015727 
 C120  C     0.307481     -0.282184     -0.060172 
 C121  C     0.305428     -0.326652     -0.000904 
 C122  C     0.232815     -0.308075      0.051014 
 C123  C     0.175565     -0.239710      0.043701 
 C124  C     0.197007     -0.190267     -0.012328 
 C125  C     0.259024     -0.209808     -0.065947 
 O126  O     0.218793     -0.362217      0.105486 
 C127  C     0.141828     -0.358792      0.154193 
 C128  C     0.125983     -0.434207      0.197391 
 C129  C     0.114221      0.491150      0.147608 
 C130  C     0.106885      0.409368      0.186358 
 O131  O     0.283944     -0.162782     -0.120160 
 C132  C     0.377326     -0.148380     -0.132012 
 C133  C     0.386466     -0.082797     -0.187557 
 C134  C     0.333246     -0.098557     -0.255355 
 C135  C     0.359494     -0.031148     -0.308650 
 H136  H     0.120015     -0.218003      0.083730 
 H137  H     0.349460     -0.301441     -0.107406 
 H138  H     0.401822     -0.124740     -0.084664 
 H139  H     0.422068     -0.203114     -0.152018 
 H140  H     0.151633     -0.303044      0.186531 
 H141  H     0.079816     -0.346721      0.125808 
 H142  H     0.362424     -0.021542     -0.164371 
 H143  H     0.460476     -0.075695     -0.198641 
 H144  H     0.178751     -0.438164      0.235116 
 H145  H     0.066068     -0.424759      0.234009 
 H146  H     0.057767     -0.497436      0.113141 
 H147  H     0.180259      0.486221      0.111623 
 H148  H     0.358419     -0.152510     -0.282285 
 H149  H     0.254458     -0.105088     -0.244021 
 H150  H     0.335355     -0.044879     -0.360587 
 H151  H     0.327381      0.028227     -0.287923 
 H152  H     0.432071     -0.013966     -0.317045 
 H153  H     0.166468      0.407418      0.218435 
 H154  H     0.039452      0.403256      0.217223 
 H155  H     0.114978      0.358383      0.148495 
 N156  N     0.498579     -0.497782      0.319962 
 C157  C    -0.475404      0.420026      0.285471 
 C158  C     0.400369     -0.487141      0.304517 
 C159  C    -0.441508     -0.435912      0.293066 
 C160  C     0.394964     -0.491407      0.225863 
 H161  H     0.349203      0.469890      0.327115 
 H162  H     0.373821     -0.427232      0.326983 
 C163  C    -0.466308      0.429946      0.206423 
 H164  H    -0.410489      0.396902      0.305781 
 H165  H     0.468635      0.371264      0.298158 
 C166  C    -0.453323     -0.428058      0.212157 
 H167  H    -0.448848     -0.376365      0.322368 
 H168  H    -0.372223     -0.460466      0.301923 
 H169  H    -0.392994      0.433818      0.186989 
 H170  H    -0.492115      0.371753      0.182287 
 H171  H     0.358785      0.451674      0.211148 
 H172  H     0.356243     -0.440119      0.205035 
 H173  H    -0.379361     -0.423821      0.184061 
 N174  N     0.490084     -0.495688      0.186918 
 H175  H    -0.487214     -0.369729      0.194975 
 C176  C    -0.279183     -0.285474      0.058486 
 C177  C    -0.317951     -0.303366     -0.006710 
 C178  C    -0.288518     -0.254655     -0.063942 
 C179  C    -0.216463     -0.196038     -0.056392 
 C180  C    -0.178939     -0.182431      0.008165 
 C181  C    -0.210113     -0.224575      0.066461 
 O182  O    -0.332954     -0.275216     -0.122364 
 C183  C    -0.311881     -0.239285     -0.191702 
 C184  C    -0.356007     -0.155652     -0.190862 
 C185  C    -0.331654     -0.098544     -0.249612 
 C186  C    -0.354001     -0.129161     -0.323472 
 O187  O    -0.183447     -0.214823      0.134510 
 C188  C    -0.181898     -0.285292      0.180571 
 C189  C    -0.124451     -0.267289      0.244213 
 C190  C    -0.122788     -0.339316      0.300418 
 C191  C    -0.052696     -0.316552      0.355367 
 H192  H    -0.187892     -0.175523     -0.104811 
 H193  H    -0.301952     -0.319537      0.102507 
 H194  H    -0.249956     -0.301032      0.197067 
 H195  H    -0.150421     -0.338676      0.153507 
 H196  H    -0.237344     -0.225994     -0.194109 
 H197  H    -0.336045     -0.280636     -0.234837 
 H198  H    -0.054924     -0.252638      0.219112 
 H199  H    -0.151758     -0.206367      0.269589 
 H200  H    -0.429365     -0.164233     -0.187766 
 H201  H    -0.341691     -0.120482     -0.140903 
 H202  H    -0.367298     -0.036034     -0.237808 
 H203  H    -0.260234     -0.088276     -0.249168 
 H204  H    -0.197168     -0.342160      0.321632 
 H205  H    -0.101104     -0.397044      0.274044 
 H206  H    -0.052029     -0.362887      0.394780 
 H207  H     0.019337     -0.306200      0.335233 
 H208  H    -0.070501     -0.256674      0.385203 
 H209  H    -0.324798     -0.085848     -0.361517 
 H210  H    -0.327605     -0.192574     -0.339375 
 H211  H    -0.426338     -0.128111     -0.327403 
 Cu212  Cu     0.004433      0.003008     -0.433320 
 Cu213  Cu    -0.000207      0.004130      0.428079 
 O214  O    -0.087561      0.089339      0.428422 
 C215  C    -0.120130      0.114958      0.489204 
 O216  O    -0.104972      0.080501     -0.453138 
 O217  O     0.084226      0.093704      0.443495 
 C218  C     0.103585      0.127850     -0.496885 
 O219  O     0.081671      0.099218     -0.434964 
 O220  O    -0.102198     -0.075220      0.448454 
 C221  C    -0.116193     -0.112011     -0.494514 
 O222  O    -0.076097     -0.097153     -0.439449 
 O223  O     0.107811     -0.083559      0.440320 
 C224  C     0.137952     -0.101936      0.498333 
 O225  O     0.113709     -0.072400     -0.438608 
 Cu226  Cu     0.489350     -0.496989     -0.423343 
 Cu227  Cu    -0.484595     -0.496869      0.442514 
 O228  O     0.414731     -0.413438      0.453132 
 C229  C     0.391022     -0.379431     -0.487091 
 O230  O     0.425963     -0.397051     -0.430417 
 O231  O    -0.394765     -0.410724      0.455434 
 C232  C    -0.367084     -0.389642     -0.483686 
 O233  O    -0.387542     -0.427931     -0.426778 
 O234  O     0.412657      0.412061      0.443522 
 C235  C     0.370095      0.393264     -0.498077 
 O236  O     0.383732      0.430614     -0.439882 
 O237  O    -0.383876      0.423034      0.440725 
 C238  C    -0.378146      0.380202      0.496959 
 O239  O    -0.427021      0.391140     -0.445495 
 C240  C    -0.316153      0.256399     -0.456986 
 C241  C    -0.301463      0.319970      0.497152 
 C242  C    -0.220424      0.319737      0.453738 
 C243  C    -0.160881      0.252439      0.452391 
 C244  C    -0.183413      0.185765      0.495093 
 C245  C    -0.263756      0.184849     -0.462489 
 O246  O    -0.192744      0.378077      0.409075 
 C247  C    -0.179129      0.460521      0.434882 
 C248  C    -0.074663      0.471068      0.440949 
 C249  C    -0.019258      0.450301      0.371823 
 C250  C     0.084900      0.460097      0.381482 
 O251  O    -0.297514      0.116188     -0.431947 
 C252  C    -0.307363      0.043988     -0.474267 
 C253  C    -0.405591      0.017830     -0.472200 
 C254  C    -0.482457      0.081161     -0.493977 
 C255  C     0.415965      0.062137     -0.473609 
 H256  H    -0.103779      0.249728      0.412144 
 H257  H    -0.379575      0.256519     -0.422324 
 H258  H    -0.287834      0.051369      0.470013 
 H259  H    -0.260987     -0.000226     -0.452809 
 H260  H    -0.207898     -0.498346      0.397438 
 H261  H    -0.215734      0.479241      0.487403 
 H262  H    -0.398322     -0.030832      0.488240 
 H263  H    -0.423089     -0.005898     -0.418597 
 H264  H    -0.052513     -0.469451      0.460953 
 H265  H    -0.055326      0.426749      0.478278 
 H266  H    -0.035462      0.385457      0.356629 
 H267  H    -0.052558      0.490208      0.336801 
 H268  H    -0.466330      0.143799     -0.477018 
 H269  H    -0.473381      0.092010      0.450801 
 H270  H     0.401037      0.056565     -0.418038 
 H271  H     0.372993      0.112259     -0.489827 
 H272  H     0.393582      0.003531     -0.494210 
 H273  H     0.118469      0.465924      0.327711 
 H274  H     0.088891     -0.482197      0.412146 
 H275  H     0.108621      0.406527      0.409708 
 N276  N     0.003042     -0.015847     -0.183657 
 C277  C    -0.059602      0.047049     -0.210905 
 C278  C     0.099512     -0.007136     -0.214961 
 C279  C    -0.032821     -0.095231     -0.212361 
 C280  C     0.099787      0.001592     -0.295076 
 H281  H     0.136728      0.042737     -0.187118 
 H282  H     0.141845     -0.065226     -0.208785 
 C283  C    -0.056842      0.048565     -0.291672 
 H284  H    -0.130256      0.034287     -0.192036 
 H285  H    -0.038901      0.111925     -0.192386 
 C286  C    -0.028077     -0.096837     -0.292763 
 H287  H     0.006384     -0.146698     -0.187995 
 H288  H    -0.101260     -0.111198     -0.199032 
 H289  H    -0.129416      0.038230     -0.306494 
 H290  H    -0.037723      0.113176     -0.307423 
 H291  H     0.122038      0.066065     -0.309277 
 H292  H     0.158815     -0.031418     -0.323284 
 H293  H    -0.098300     -0.107539     -0.309517 
 N294  N     0.007937     -0.016062     -0.318831 
 H295  H     0.013223     -0.140643     -0.323639 
 C296  C     0.228838      0.326415     -0.448586 
 C297  C     0.296169      0.326043      0.497460 
 C298  C     0.295853      0.266608      0.440705 
 C299  C     0.233141      0.202311      0.444075 
 C300  C     0.170101      0.201533     -0.496781 
 C301  C     0.164278      0.263528     -0.445416 
 O302  O     0.351602      0.280661      0.383193 
 C303  C     0.437386      0.227738      0.368817 
 C304  C     0.411388      0.145226      0.329356 
 C305  C     0.362092      0.147776      0.257811 
 C306  C     0.277006      0.205770      0.257414 
 O307  O     0.100560      0.254412     -0.391328 
 C308  C     0.072536      0.330203     -0.355570 
 C309  C    -0.008132      0.307143     -0.306734 
 C310  C    -0.092526      0.275324     -0.345828 
 C311  C    -0.173190      0.258198     -0.291442 
 H312  H     0.231894      0.158204      0.400167 
 H313  H     0.233058      0.363618     -0.404359 
 H314  H     0.134512      0.349903     -0.323242 
 H315  H     0.055148      0.382922     -0.387825 
 H316  H     0.492500      0.257138      0.335249 
 H317  H     0.464527      0.224378      0.418028 
 H318  H     0.014562      0.268560     -0.265019 
 H319  H    -0.030226      0.363052     -0.276051 
 H320  H     0.470234      0.100004      0.321694 
 H321  H     0.362845      0.117599      0.367538 
 H322  H     0.415641      0.166061      0.216759 
 H323  H     0.335118      0.085551      0.245191 
 H324  H    -0.113005      0.321723     -0.382437 
 H325  H    -0.075538      0.225701     -0.381690 
 H326  H    -0.241322      0.255445     -0.314920 
 H327  H    -0.150655      0.208045     -0.257924 
 H328  H    -0.181840      0.311566     -0.259360 
 H329  H     0.304965      0.266247      0.262527 
 H330  H     0.247546      0.195757      0.203994 
 H331  H     0.225602      0.188626      0.295897 
 C332  C     0.200821     -0.220758     -0.436635 
 C333  C     0.205472     -0.173176     -0.497940 
 C334  C     0.266445     -0.188870      0.443532 
 C335  C     0.319597     -0.263191      0.446796 
 C336  C     0.325497     -0.306677     -0.490357 
 C337  C     0.266425     -0.285355     -0.431283 
 O338  O     0.276329     -0.140944      0.384440 
 C339  C     0.368369     -0.126143      0.350342 
 C340  C     0.362767     -0.131637      0.273088 
 C341  C     0.358987     -0.216544      0.237514 
 C342  C     0.391720     -0.215164      0.157683 
 O343  O     0.265538     -0.329054     -0.371322 
 C344  C     0.183633     -0.337763     -0.326130 
 C345  C     0.170832     -0.294159     -0.252901 
 C346  C     0.084939     -0.314565     -0.213411 
 C347  C     0.075224     -0.285563     -0.136653 
 H348  H     0.360575     -0.289052      0.398679 
 H349  H     0.171044     -0.201185     -0.384510 
 H350  H     0.123930     -0.328339     -0.358061 
 H351  H     0.194925     -0.402407     -0.314106 
 H352  H     0.392127     -0.065802      0.368970 
 H353  H     0.418400     -0.173172      0.365969 
 H354  H     0.226446     -0.314598     -0.219138 
 H355  H     0.179537     -0.228817     -0.261954 
 H356  H     0.306885     -0.088164      0.252524 
 H357  H     0.428566     -0.099045      0.261718 
 H358  H     0.406246     -0.262478      0.255779 
 H359  H     0.285980     -0.234089      0.249700 
 H360  H     0.031586     -0.279786     -0.239390 
 H361  H     0.059897     -0.378593     -0.222004 
 H362  H     0.087839     -0.219203     -0.125752 
 H363  H     0.000319     -0.289932     -0.120296 
 H364  H     0.122852     -0.322330     -0.104482 
 H365  H     0.468081     -0.206446      0.151407 
 H366  H     0.384943     -0.275386      0.135852 
 H367  H     0.357314     -0.169583      0.125742 
 N368  N    -0.484373      0.495259     -0.178953 
 C369  C    -0.424008      0.433480     -0.215964 
 C370  C     0.421171      0.479982     -0.200990 
 C371  C    -0.448389     -0.423818     -0.200677 
 C372  C     0.416440      0.476673     -0.284744 
 H373  H     0.394625      0.422461     -0.177423 
 H374  H     0.373262     -0.466689     -0.186518 
 C375  C    -0.433242      0.434950     -0.297587 
 H376  H    -0.347140      0.435236     -0.204958 
 H377  H    -0.444899      0.375997     -0.189932 
 C378  C    -0.467475     -0.414379     -0.285381 
 H379  H    -0.478911     -0.376607     -0.162544 
 H380  H    -0.370557     -0.426649     -0.191107 
 H381  H    -0.369834      0.442281     -0.331136 
 H382  H    -0.456873      0.374928     -0.322099 
 H383  H     0.388245      0.414802     -0.298454 
 H384  H     0.360320     -0.484589     -0.298036 
 H385  H    -0.407734     -0.383790     -0.314988 
 N386  N    -0.496834     -0.499076     -0.316857 
 H387  H     0.471290     -0.374163     -0.292194 
 C388  C    -0.311380     -0.263908      0.462751 
 C389  C    -0.302432     -0.317625     -0.483069 
 C390  C    -0.237340     -0.308834     -0.432735 
 C391  C    -0.177098     -0.239166     -0.437810 
 C392  C    -0.185080     -0.183488     -0.492447 
 C393  C    -0.250750     -0.195400      0.456338 
 O394  O    -0.226296     -0.368880     -0.382249 
 C395  C    -0.130797     -0.386412     -0.371170 
 C396  C    -0.109958     -0.469581     -0.342461 
 C397  C    -0.174256     -0.488332     -0.279972 
 C398  C    -0.147741     -0.441364     -0.209088 
 O399  O    -0.253956     -0.143609      0.403118 
 C400  C    -0.334227     -0.148217      0.361326 
 C401  C    -0.323932     -0.083691      0.305417 
 C402  C    -0.333303      0.005265      0.328775 
 C403  C    -0.321602      0.058380      0.262404 
 H404  H    -0.113380     -0.232393     -0.405017 
 H405  H    -0.367121     -0.266971      0.432203 
 H406  H    -0.332413     -0.206519      0.335520 
 H407  H    -0.395098     -0.135079      0.393649 
 H408  H    -0.084147     -0.381207     -0.419871 
 H409  H    -0.101171     -0.338078     -0.338842 
 H410  H    -0.255919     -0.089032      0.280739 
 H411  H    -0.376011     -0.099160      0.265654 
 H412  H    -0.119726      0.485245     -0.387308 
 H413  H    -0.035908     -0.472644     -0.331361 
 H414  H    -0.246972     -0.476118     -0.292471 
 H415  H    -0.172939      0.445394     -0.273164 
 H416  H    -0.405920      0.013204      0.357938 
 H417  H    -0.282372      0.014376      0.368521 
 H418  H    -0.338848      0.119415      0.278614 
 H419  H    -0.248128      0.055495      0.243600 
 H420  H    -0.362541      0.033819      0.220939 
 H421  H    -0.081465     -0.453413     -0.185912 
 H422  H    -0.148757     -0.373771     -0.210644 
 H423  H    -0.206829     -0.449979     -0.170307 
loop_  
_geom_bond_atom_site_label_1  
_geom_bond_atom_site_label_2  
Cu0   Cu1 
Cu0   O4 
Cu0   O7 
Cu0   O10 
Cu0   O13 
Cu0   N82 
Cu1   O2 
Cu1   O5 
Cu1   O8 
Cu1   O11 
Cu1   N276 
O2   C3 
C3   O4 
C3   C32 
O5   C6 
C6   O7 
C6   C88 
O8   C9 
C9   O10 
C9   C180 
O11   C12 
C12   O13 
C12   C124 
Cu14   Cu15 
Cu14   O18 
Cu14   O21 
Cu14   O24 
Cu14   O27 
Cu14   N174 
Cu15   O16 
Cu15   O19 
Cu15   O22 
Cu15   O25 
Cu15   N368 
O16   C17 
C17   O18 
C17   C121 
O19   C20 
C20   O21 
C20   C177 
O22   C23 
C23   O24 
C23   C85 
O25   C26 
C26   O27 
C26   C29 
C28   C29 
C28   C33 
C28   H45 
C29   C30 
C30   C31 
C30   O34 
C31   C32 
C31   H44 
C32   C33 
C33   O39 
O34   C35 
C35   C36 
C35   H48 
C35   H49 
C36   C37 
C36   H52 
C36   H53 
C37   C38 
C37   H54 
C37   H55 
C38   H61 
C38   H62 
C38   H63 
O39   C40 
C40   C41 
C40   H46 
C40   H47 
C41   C42 
C41   H50 
C41   H51 
C42   C43 
C42   H56 
C42   H57 
C43   H58 
C43   H59 
C43   H60 
N64   C65 
N64   C66 
N64   C67 
N64   Cu213 
C65   C71 
C65   H72 
C65   H73 
C66   C68 
C66   H69 
C66   H70 
C67   C74 
C67   H75 
C67   H76 
C68   H79 
C68   H80 
C68   N82 
C71   H77 
C71   H78 
C71   N82 
C74   H81 
C74   N82 
C74   H83 
C84   C85 
C84   C89 
C84   H101 
C85   C86 
C86   C87 
C86   O90 
C87   C88 
C87   H100 
C88   C89 
C89   O95 
O90   C91 
C91   C92 
C91   H104 
C91   H105 
C92   C93 
C92   H108 
C92   H109 
C93   C94 
C93   H110 
C93   H111 
C94   H117 
C94   H118 
C94   H119 
O95   C96 
C96   C97 
C96   H102 
C96   H103 
C97   C98 
C97   H106 
C97   H107 
C98   C99 
C98   H112 
C98   H113 
C99   H114 
C99   H115 
C99   H116 
C120   C121 
C120   C125 
C120   H137 
C121   C122 
C122   C123 
C122   O126 
C123   C124 
C123   H136 
C124   C125 
C125   O131 
O126   C127 
C127   C128 
C127   H140 
C127   H141 
C128   C129 
C128   H144 
C128   H145 
C129   C130 
C129   H146 
C129   H147 
C130   H153 
C130   H154 
C130   H155 
O131   C132 
C132   C133 
C132   H138 
C132   H139 
C133   C134 
C133   H142 
C133   H143 
C134   C135 
C134   H148 
C134   H149 
C135   H150 
C135   H151 
C135   H152 
N156   C157 
N156   C158 
N156   C159 
N156   Cu227 
C157   C163 
C157   H164 
C157   H165 
C158   C160 
C158   H161 
C158   H162 
C159   C166 
C159   H167 
C159   H168 
C160   H171 
C160   H172 
C160   N174 
C163   H169 
C163   H170 
C163   N174 
C166   H173 
C166   N174 
C166   H175 
C176   C177 
C176   C181 
C176   H193 
C177   C178 
C178   C179 
C178   O182 
C179   C180 
C179   H192 
C180   C181 
C181   O187 
O182   C183 
C183   C184 
C183   H196 
C183   H197 
C184   C185 
C184   H200 
C184   H201 
C185   C186 
C185   H202 
C185   H203 
C186   H209 
C186   H210 
C186   H211 
O187   C188 
C188   C189 
C188   H194 
C188   H195 
C189   C190 
C189   H198 
C189   H199 
C190   C191 
C190   H204 
C190   H205 
C191   H206 
C191   H207 
C191   H208 
Cu212   Cu213 
Cu212   O216 
Cu212   O219 
Cu212   O222 
Cu212   O225 
Cu212   N294 
Cu213   O214 
Cu213   O217 
Cu213   O220 
Cu213   O223 
O214   C215 
C215   O216 
C215   C244 
O217   C218 
C218   O219 
C218   C300 
O220   C221 
C221   O222 
C221   C392 
O223   C224 
C224   O225 
C224   C333 
Cu226   Cu227 
Cu226   O230 
Cu226   O233 
Cu226   O236 
Cu226   O239 
Cu226   N386 
Cu227   O228 
Cu227   O231 
Cu227   O234 
Cu227   O237 
O228   C229 
C229   O230 
C229   C336 
O231   C232 
C232   O233 
C232   C389 
O234   C235 
C235   O236 
C235   C297 
O237   C238 
C238   O239 
C238   C241 
C240   C241 
C240   C245 
C240   H257 
C241   C242 
C242   C243 
C242   O246 
C243   C244 
C243   H256 
C244   C245 
C245   O251 
O246   C247 
C247   C248 
C247   H260 
C247   H261 
C248   C249 
C248   H264 
C248   H265 
C249   C250 
C249   H266 
C249   H267 
C250   H273 
C250   H274 
C250   H275 
O251   C252 
C252   C253 
C252   H258 
C252   H259 
C253   C254 
C253   H262 
C253   H263 
C254   C255 
C254   H268 
C254   H269 
C255   H270 
C255   H271 
C255   H272 
N276   C277 
N276   C278 
N276   C279 
C277   C283 
C277   H284 
C277   H285 
C278   C280 
C278   H281 
C278   H282 
C279   C286 
C279   H287 
C279   H288 
C280   H291 
C280   H292 
C280   N294 
C283   H289 
C283   H290 
C283   N294 
C286   H293 
C286   N294 
C286   H295 
C296   C297 
C296   C301 
C296   H313 
C297   C298 
C298   C299 
C298   O302 
C299   C300 
C299   H312 
C300   C301 
C301   O307 
O302   C303 
C303   C304 
C303   H316 
C303   H317 
C304   C305 
C304   H320 
C304   H321 
C305   C306 
C305   H322 
C305   H323 
C306   H329 
C306   H330 
C306   H331 
O307   C308 
C308   C309 
C308   H314 
C308   H315 
C309   C310 
C309   H318 
C309   H319 
C310   C311 
C310   H324 
C310   H325 
C311   H326 
C311   H327 
C311   H328 
C332   C333 
C332   C337 
C332   H349 
C333   C334 
C334   C335 
C334   O338 
C335   C336 
C335   H348 
C336   C337 
C337   O343 
O338   C339 
C339   C340 
C339   H352 
C339   H353 
C340   C341 
C340   H356 
C340   H357 
C341   C342 
C341   H358 
C341   H359 
C342   H365 
C342   H366 
C342   H367 
O343   C344 
C344   C345 
C344   H350 
C344   H351 
C345   C346 
C345   H354 
C345   H355 
C346   C347 
C346   H360 
C346   H361 
C347   H362 
C347   H363 
C347   H364 
N368   C369 
N368   C370 
N368   C371 
C369   C375 
C369   H376 
C369   H377 
C370   C372 
C370   H373 
C370   H374 
C371   C378 
C371   H379 
C371   H380 
C372   H383 
C372   H384 
C372   N386 
C375   H381 
C375   H382 
C375   N386 
C378   H385 
C378   N386 
C378   H387 
C388   C389 
C388   C393 
C388   H405 
C389   C390 
C390   C391 
C390   O394 
C391   C392 
C391   H404 
C392   C393 
C393   O399 
O394   C395 
C395   C396 
C395   H408 
C395   H409 
C396   C397 
C396   H412 
C396   H413 
C397   C398 
C397   H414 
C397   H415 
C398   H421 
C398   H422 
C398   H423 
O399   C400 
C400   C401 
C400   H406 
C400   H407 
C401   C402 
C401   H410 
C401   H411 
C402   C403 
C402   H416 
C402   H417 
C403   H418 
C403   H419 
C403   H420 
  
#END  
