data_
_symmetry_cell_setting           triclinic 
_symmetry_space_group_name_H-M   'P 1' 
_symmetry_Int_Tables_number      1 
loop_ 
_symmetry_equiv_pos_site_id 
_symmetry_equiv_pos_as_xyz 
1 x,y,z 
_cell_length_a             18.404894        
_cell_length_b             10.689516        
_cell_length_c             19.069843        
_cell_angle_alpha          91.670470        
_cell_angle_beta           90.579727        
_cell_angle_gamma          89.902587        
loop_  
_atom_site_label   
_atom_site_type_symbol  
_atom_site_fract_x  
_atom_site_fract_y  
_atom_site_fract_z 
 Cu0  Cu     0.005580     -0.003588      0.063362 
 Cu1  Cu     0.005908      0.012411     -0.069975 
 O2  O    -0.084740      0.108403     -0.052426 
 C3  C    -0.111422      0.123946      0.008488 
 O4  O    -0.079008      0.102974      0.064957 
 O5  O     0.064173      0.165522     -0.050595 
 C6  C     0.098712      0.171702      0.006418 
 O7  O     0.080927      0.131962      0.065580 
 O8  O    -0.064285     -0.135751     -0.078825 
 C9  C    -0.093479     -0.164118     -0.019389 
 O10  O    -0.066394     -0.139236      0.040791 
 O11  O     0.098543     -0.095494     -0.064135 
 C12  C     0.125264     -0.133317     -0.007684 
 O13  O     0.092628     -0.120087      0.051162 
 Cu14  Cu    -0.491379      0.497577      0.074782 
 Cu15  Cu     0.496882      0.493531     -0.059083 
 O16  O     0.450458     -0.340648     -0.036172 
 C17  C     0.411747     -0.332092      0.018359 
 O18  O     0.432294     -0.370813      0.077618 
 O19  O    -0.406963     -0.413791     -0.050888 
 C20  C    -0.378860     -0.377989      0.006889 
 O21  O    -0.410570     -0.389214      0.066297 
 O22  O     0.408963      0.412377     -0.062803 
 C23  C     0.391727      0.363529     -0.006704 
 O24  O     0.430154      0.372196      0.050868 
 O25  O    -0.437316      0.346931     -0.049813 
 C26  C    -0.405913      0.314798      0.008939 
 O27  O    -0.422639      0.358923      0.069442 
 C28  C    -0.215556      0.218510     -0.051696 
 C29  C    -0.187568      0.173027      0.011246 
 C30  C    -0.232353      0.178795      0.071043 
 C31  C    -0.300580      0.232043      0.067707 
 C32  C    -0.329146      0.273191      0.004514 
 C33  C    -0.285155      0.269245     -0.055542 
 O34  O    -0.202213      0.139251      0.131682 
 C35  C    -0.249076      0.117965      0.190850 
 C36  C    -0.273107      0.231361      0.234221 
 C37  C    -0.309175      0.204232      0.309305 
 C38  C    -0.272651      0.109690      0.354844 
 O39  O    -0.310862      0.313658     -0.116767 
 C40  C    -0.260616      0.349945     -0.169005 
 C41  C    -0.258625      0.240600     -0.222539 
 C42  C    -0.202388      0.268100     -0.276304 
 C43  C    -0.224450      0.388050     -0.316518 
 H44  H    -0.336093      0.237556      0.112711 
 H45  H    -0.182266      0.220766     -0.097020 
 H46  H    -0.276831      0.439690     -0.188721 
 H47  H    -0.203793      0.376402     -0.146184 
 H48  H    -0.295334      0.063989      0.168765 
 H49  H    -0.215722      0.053604      0.219360 
 H50  H    -0.248925      0.149830     -0.193700 
 H51  H    -0.312695      0.235254     -0.252417 
 H52  H    -0.220598      0.284128      0.237235 
 H53  H    -0.309574      0.294485      0.207714 
 H54  H    -0.311833      0.296851      0.339176 
 H55  H    -0.367314      0.175755      0.299625 
 H56  H    -0.147011      0.279838     -0.253939 
 H57  H    -0.197983      0.194369     -0.316539 
 H58  H    -0.187107      0.403001     -0.357203 
 H59  H    -0.272936      0.369189     -0.345221 
 H60  H    -0.237620      0.470463     -0.286487 
 H61  H    -0.216600      0.141589      0.365776 
 H62  H    -0.305852      0.100922      0.402447 
 H63  H    -0.270229      0.015028      0.328189 
 N64  N    -0.002836     -0.012635      0.313432 
 C65  C    -0.002395     -0.143070      0.279201 
 C66  C    -0.070893      0.054237      0.288646 
 C67  C     0.062071      0.060456      0.290795 
 C68  C    -0.067854      0.049850      0.209181 
 H69  H    -0.119110     -0.008901      0.310938 
 H70  H    -0.073118      0.146290      0.309551 
 C71  C     0.010425     -0.134233      0.200595 
 H72  H     0.040150     -0.206823      0.300673 
 H73  H    -0.052217     -0.189687      0.291097 
 C74  C     0.062419      0.070380      0.209783 
 H75  H     0.067176      0.152184      0.318431 
 H76  H     0.111608      0.008156      0.311262 
 H77  H     0.063325     -0.177408      0.184405 
 H78  H    -0.025263     -0.209619      0.173035 
 H79  H    -0.112419     -0.008508      0.188918 
 H80  H    -0.083767      0.142378      0.187437 
 H81  H     0.116614      0.035167      0.191057 
 N82  N     0.001327     -0.002614      0.179015 
 H83  H     0.061125      0.166503      0.192255 
 C84  C     0.259960      0.381214     -0.040779 
 C85  C     0.317317      0.317315     -0.008791 
 C86  C     0.299795      0.208213      0.027342 
 C87  C     0.228870      0.174588      0.040363 
 C88  C     0.173436      0.230332      0.004875 
 C89  C     0.189557      0.332003     -0.039105 
 O90  O     0.359604      0.146168      0.055505 
 C91  C     0.339748      0.053911      0.104888 
 C92  C     0.409827     -0.019709      0.128173 
 C93  C     0.465660      0.056867      0.169462 
 C94  C    -0.483213     -0.042050      0.197457 
 O95  O     0.131541      0.391295     -0.067488 
 C96  C     0.149868     -0.493202     -0.099543 
 C97  C     0.082865     -0.411667     -0.111836 
 C98  C     0.021335     -0.483462     -0.156503 
 C99  C    -0.040873     -0.392491     -0.171345 
 H100  H     0.215299      0.092137      0.068627 
 H101  H     0.275335      0.469377     -0.064067 
 H102  H     0.188174     -0.428986     -0.074371 
 H103  H     0.175548      0.477238     -0.150874 
 H104  H     0.312367      0.102174      0.148131 
 H105  H     0.310536     -0.019258      0.074511 
 H106  H     0.057567     -0.380042     -0.059508 
 H107  H     0.100635     -0.336246     -0.139269 
 H108  H     0.395478     -0.092761      0.163663 
 H109  H     0.435311     -0.070064      0.086847 
 H110  H     0.494496      0.132423      0.143402 
 H111  H     0.435579      0.104526      0.210989 
 H112  H     0.042854      0.472829     -0.204156 
 H113  H    -0.000420      0.439550     -0.125912 
 H114  H    -0.024291     -0.307215     -0.198448 
 H115  H    -0.078171     -0.447344     -0.201753 
 H116  H    -0.067057     -0.361954     -0.122795 
 H117  H     0.485751     -0.114820      0.226241 
 H118  H    -0.453593     -0.087123      0.154885 
 H119  H    -0.439130      0.004016      0.229169 
 C120  C     0.210476     -0.293506      0.048933 
 C121  C     0.197618     -0.203150     -0.004867 
 C122  C     0.253033     -0.163189     -0.047011 
 C123  C     0.321628     -0.205796     -0.038512 
 C124  C     0.336419     -0.294490      0.012548 
 C125  C     0.278632     -0.347945      0.053004 
 O126  O     0.232835     -0.074274     -0.090483 
 C127  C     0.284556     -0.017295     -0.131315 
 C128  C     0.252226      0.090759     -0.173884 
 C129  C     0.304417      0.174972     -0.205929 
 C130  C     0.274392      0.272029     -0.255634 
 O131  O     0.287816     -0.446517      0.098701 
 C132  C     0.229549      0.483019      0.130597 
 C133  C     0.256160      0.383713      0.179489 
 C134  C     0.200346      0.291130      0.200706 
 C135  C     0.229412      0.211339      0.257422 
 H136  H     0.368410     -0.156277     -0.066565 
 H137  H     0.168728     -0.328370      0.081952 
 H138  H     0.192424     -0.448261      0.159289 
 H139  H     0.193244      0.432372      0.087423 
 H140  H     0.327673      0.022042     -0.098735 
 H141  H     0.307907     -0.094058     -0.167563 
 H142  H     0.304373      0.334753      0.152572 
 H143  H     0.275879      0.429205      0.228031 
 H144  H     0.212809      0.053785     -0.211202 
 H145  H     0.219887      0.155508     -0.146283 
 H146  H     0.333350      0.225790     -0.163423 
 H147  H     0.350998      0.119499     -0.229113 
 H148  H     0.156742      0.351068      0.220844 
 H149  H     0.169151      0.245669      0.156876 
 H150  H     0.242985      0.267159      0.306778 
 H151  H     0.196504      0.134083      0.269964 
 H152  H     0.282437      0.174776      0.239510 
 H153  H     0.317009      0.334721     -0.274085 
 H154  H     0.255399      0.219488     -0.304472 
 H155  H     0.230390      0.327795     -0.232219 
 N156  N     0.490977      0.486306      0.323736 
 C157  C     0.433534     -0.423858      0.299474 
 C158  C    -0.437596     -0.468077      0.295696 
 C159  C     0.474554      0.364656      0.285165 
 C160  C    -0.438620     -0.444915      0.214171 
 H161  H    -0.419564     -0.379171      0.323637 
 H162  H    -0.394140      0.472045      0.313922 
 C163  C     0.432184     -0.416933      0.217593 
 H164  H     0.381664     -0.461382      0.318370 
 H165  H     0.446904     -0.332425      0.321928 
 C166  C     0.479907      0.380846      0.205794 
 H167  H    -0.490486      0.285694      0.305359 
 H168  H     0.419335      0.344236      0.298684 
 H169  H     0.383278     -0.457610      0.187517 
 H170  H     0.435979     -0.318683      0.205499 
 H171  H    -0.434430     -0.342694      0.209396 
 H172  H    -0.392195     -0.481580      0.184521 
 H173  H     0.434114      0.337412      0.177150 
 N174  N     0.491146     -0.489441      0.185396 
 H175  H    -0.469081      0.334473      0.192251 
 C176  C    -0.247744     -0.406388      0.012836 
 C177  C    -0.304111     -0.324061     -0.000781 
 C178  C    -0.298184     -0.195174     -0.017511 
 C179  C    -0.228912     -0.148283     -0.030438 
 C180  C    -0.169363     -0.225374     -0.016734 
 C181  C    -0.179524     -0.354295      0.006254 
 O182  O    -0.352761     -0.113394     -0.023707 
 C183  C    -0.428172     -0.142309     -0.016252 
 C184  C    -0.471711     -0.011331     -0.023754 
 C185  C    -0.459523      0.041535     -0.095740 
 C186  C    -0.496407     -0.019598     -0.159347 
 O187  O    -0.116434     -0.402427      0.029516 
 C188  C    -0.115816      0.465132      0.023193 
 C189  C    -0.038795      0.414701      0.039995 
 C190  C    -0.005513      0.476618      0.103484 
 C191  C    -0.036910      0.441285      0.177723 
 H192  H    -0.221628     -0.048519     -0.036844 
 H193  H    -0.252238      0.497208      0.023965 
 H194  H    -0.146937      0.412036      0.059171 
 H195  H    -0.138617      0.435923     -0.028598 
 H196  H    -0.448797     -0.206240     -0.057095 
 H197  H    -0.432896     -0.170935      0.038956 
 H198  H    -0.028616      0.316728      0.039813 
 H199  H    -0.013463      0.446419     -0.008437 
 H200  H     0.473053     -0.007607     -0.013660 
 H201  H    -0.444882      0.044413      0.020289 
 H202  H    -0.481673      0.140000     -0.095309 
 H203  H    -0.402321      0.051501     -0.102691 
 H204  H     0.055101      0.452970      0.098467 
 H205  H    -0.006732     -0.419600      0.100786 
 H206  H    -0.011136     -0.492044      0.213679 
 H207  H    -0.100795      0.456977      0.176857 
 H208  H    -0.027020      0.344146      0.191427 
 H209  H    -0.480885      0.029713     -0.206011 
 H210  H    -0.480055     -0.121058     -0.162432 
 H211  H     0.443768     -0.017055     -0.148282 
 Cu212  Cu     0.006775      0.012975     -0.436167 
 Cu213  Cu    -0.001107      0.011297      0.425702 
 O214  O    -0.070781      0.167416      0.453599 
 C215  C    -0.103127      0.171150     -0.488121 
 O216  O    -0.082494      0.121001     -0.430453 
 O217  O     0.077038      0.136890      0.437435 
 C218  C     0.100076      0.181236      0.494317 
 O219  O     0.068608      0.177705     -0.443700 
 O220  O    -0.086397     -0.096051      0.428613 
 C221  C    -0.099948     -0.141801      0.487504 
 O222  O    -0.058154     -0.127708     -0.458794 
 O223  O     0.079488     -0.119350      0.428898 
 C224  C     0.117206     -0.117963      0.483228 
 O225  O     0.098538     -0.071987     -0.457294 
 Cu226  Cu     0.494690      0.499709     -0.423785 
 Cu227  Cu     0.499485     -0.499851      0.437925 
 O228  O     0.426661     -0.357351      0.447803 
 C229  C     0.397199     -0.336639     -0.493319 
 O230  O     0.421934     -0.362819     -0.432625 
 O231  O    -0.416409     -0.377062      0.454265 
 C232  C    -0.383991     -0.371387     -0.484828 
 O233  O    -0.414107     -0.400069     -0.427841 
 O234  O     0.421146      0.376273      0.450552 
 C235  C     0.390064      0.362888     -0.490631 
 O236  O     0.413292      0.397213     -0.431162 
 O237  O    -0.422633      0.376403      0.445820 
 C238  C    -0.402355      0.343410     -0.494480 
 O239  O    -0.440352      0.345371     -0.441061 
 C240  C    -0.239840      0.146870     -0.466039 
 C241  C    -0.181855      0.219992     -0.490676 
 C242  C    -0.200546      0.324987      0.474100 
 C243  C    -0.274263      0.363634      0.473336 
 C244  C    -0.328591      0.295860     -0.492654 
 C245  C    -0.311654      0.189272     -0.457509 
 O246  O    -0.147927      0.404582      0.445521 
 C247  C    -0.136964      0.407181      0.372076 
 C248  C    -0.087417     -0.488568      0.352411 
 C249  C    -0.012583     -0.498671      0.388277 
 C250  C     0.030963      0.384587      0.367232 
 O251  O    -0.368768      0.128311     -0.424813 
 C252  C    -0.351436      0.011748     -0.390686 
 C253  C    -0.418054     -0.025219     -0.351637 
 C254  C    -0.489094     -0.043895     -0.390922 
 C255  C     0.479263      0.070962     -0.422804 
 H256  H    -0.281442      0.453387      0.446358 
 H257  H    -0.224702      0.061224     -0.443905 
 H258  H    -0.333664     -0.059248     -0.427500 
 H259  H    -0.308196      0.033811     -0.351139 
 H260  H    -0.123126      0.311846      0.351631 
 H261  H    -0.187912      0.421999      0.344425 
 H262  H    -0.405798     -0.101411     -0.319078 
 H263  H    -0.426259      0.048081     -0.309608 
 H264  H    -0.083262     -0.476575      0.295867 
 H265  H    -0.120297     -0.413719      0.374135 
 H266  H     0.021108     -0.419525      0.373353 
 H267  H    -0.020839     -0.491751      0.446730 
 H268  H    -0.479923     -0.116759     -0.430296 
 H269  H     0.475446     -0.085307     -0.355257 
 H270  H     0.427156      0.040457     -0.446654 
 H271  H     0.470012      0.148909     -0.385885 
 H272  H    -0.484679      0.113457     -0.460436 
 H273  H     0.045502      0.383778      0.312642 
 H274  H     0.082355      0.380785      0.396552 
 H275  H    -0.000738      0.303710      0.377450 
 N276  N     0.001641      0.035993     -0.184477 
 C277  C     0.022051      0.160541     -0.209465 
 C278  C     0.060353     -0.049664     -0.208820 
 C279  C    -0.068721     -0.016653     -0.219035 
 C280  C     0.071042     -0.044844     -0.290065 
 H281  H     0.110647     -0.037225     -0.180951 
 H282  H     0.044167     -0.141100     -0.193453 
 C283  C     0.020805      0.160800     -0.290884 
 H284  H    -0.015057      0.226950     -0.179267 
 H285  H     0.078234      0.178723     -0.189393 
 C286  C    -0.058274     -0.014787     -0.299273 
 H287  H    -0.077821     -0.105710     -0.196250 
 H288  H    -0.109115      0.049901     -0.201187 
 H289  H    -0.020719      0.221643     -0.310532 
 H290  H     0.070960      0.202689     -0.307127 
 H291  H     0.122671     -0.013760     -0.308260 
 H292  H     0.068712     -0.140941     -0.308916 
 H293  H    -0.102816      0.040841     -0.322304 
 N294  N     0.011974      0.032250     -0.320778 
 H295  H    -0.061929     -0.110784     -0.320605 
 C296  C     0.223723      0.186023      0.445471 
 C297  C     0.172955      0.245556      0.488061 
 C298  C     0.192179      0.342291     -0.463763 
 C299  C     0.263209      0.370339     -0.454938 
 C300  C     0.316738      0.310487      0.499498 
 C301  C     0.300286      0.213524      0.456954 
 O302  O     0.139534      0.396304     -0.427227 
 C303  C     0.148323     -0.492517     -0.384511 
 C304  C     0.075434     -0.466679     -0.351647 
 C305  C     0.018087     -0.438638     -0.405176 
 C306  C    -0.061130     -0.442969     -0.378976 
 O307  O     0.356762      0.150088      0.426808 
 C308  C     0.341029      0.037415      0.386556 
 C309  C     0.416234     -0.004730      0.358136 
 C310  C     0.473434     -0.015069      0.415403 
 C311  C    -0.450869     -0.063251      0.394516 
 H312  H     0.277430      0.429557     -0.412280 
 H313  H     0.210203      0.104000      0.413059 
 H314  H     0.321330     -0.039788      0.415827 
 H315  H     0.302876      0.057969      0.342405 
 H316  H     0.187068      0.486653     -0.343851 
 H317  H     0.173188     -0.421761     -0.416230 
 H318  H     0.408794     -0.096867      0.326395 
 H319  H     0.443184      0.063990      0.324988 
 H320  H     0.062127      0.449351     -0.322719 
 H321  H     0.081064     -0.386074     -0.314734 
 H322  H     0.028580     -0.350073     -0.429336 
 H323  H     0.016977      0.482054     -0.445636 
 H324  H     0.480068      0.069855      0.445506 
 H325  H     0.454974     -0.078532      0.457127 
 H326  H    -0.415121     -0.054504      0.440605 
 H327  H    -0.453252     -0.164209      0.373324 
 H328  H    -0.434159     -0.004988      0.353105 
 H329  H    -0.098762     -0.439693     -0.423801 
 H330  H    -0.064393      0.465445     -0.354722 
 H331  H    -0.072290     -0.380929     -0.332734 
 C332  C     0.277895     -0.326564      0.448575 
 C333  C     0.324974     -0.282654     -0.498614 
 C334  C     0.302694     -0.184750     -0.455353 
 C335  C     0.237026     -0.118542     -0.467314 
 C336  C     0.191369     -0.166181      0.480917 
 C337  C     0.210803     -0.270128      0.436039 
 O338  O     0.346151     -0.162781     -0.397223 
 C339  C     0.320117     -0.092950     -0.339355 
 C340  C     0.261218     -0.166787     -0.298974 
 C341  C     0.291627     -0.287109     -0.262480 
 C342  C     0.238463     -0.344596     -0.212330 
 O343  O     0.163103     -0.307581      0.384740 
 C344  C     0.188114     -0.385512      0.327278 
 C345  C     0.243224     -0.311417      0.282832 
 C346  C     0.203773     -0.198971      0.250778 
 C347  C     0.261291     -0.111332      0.221839 
 H348  H     0.227081     -0.034714     -0.434960 
 H349  H     0.297341     -0.391765      0.411802 
 H350  H     0.216789     -0.464986      0.347184 
 H351  H     0.138084     -0.419743      0.297901 
 H352  H     0.363195     -0.078303     -0.300443 
 H353  H     0.301444     -0.000918     -0.353856 
 H354  H     0.283175     -0.285922      0.319425 
 H355  H     0.270595     -0.361393      0.242459 
 H356  H     0.230295     -0.111405     -0.263550 
 H357  H     0.218262     -0.199071     -0.333705 
 H358  H     0.301768     -0.351276     -0.308444 
 H359  H     0.343559     -0.260092     -0.236867 
 H360  H     0.164602     -0.223750      0.205990 
 H361  H     0.177404     -0.146624      0.292533 
 H362  H     0.309066     -0.090380      0.261306 
 H363  H     0.281809     -0.155038      0.172868 
 H364  H     0.234414     -0.024404      0.207515 
 H365  H     0.266197     -0.423597     -0.185038 
 H366  H     0.225291     -0.265050     -0.172368 
 H367  H     0.187872     -0.391480     -0.239228 
 N368  N    -0.497853      0.488501     -0.176864 
 C369  C     0.438980     -0.451013     -0.205756 
 C370  C    -0.434326     -0.449450     -0.202997 
 C371  C    -0.496033      0.355039     -0.203322 
 C372  C    -0.429372     -0.451454     -0.282075 
 H373  H    -0.440757     -0.350687     -0.192520 
 H374  H    -0.386196     -0.496891     -0.179902 
 C375  C     0.440694     -0.444542     -0.287311 
 H376  H     0.393306      0.495601     -0.193118 
 H377  H     0.430657     -0.359828     -0.175285 
 C378  C    -0.492194      0.353408     -0.284216 
 H379  H    -0.442653      0.319105     -0.184209 
 H380  H     0.459149      0.297097     -0.182142 
 H381  H     0.392701     -0.474178     -0.318795 
 H382  H     0.442204     -0.348945     -0.299561 
 H383  H    -0.429483     -0.354626     -0.297069 
 H384  H    -0.383631     -0.492711     -0.306418 
 H385  H     0.465099      0.292558     -0.307924 
 N386  N    -0.493944      0.489619     -0.312683 
 H387  H    -0.442979      0.307786     -0.302342 
 C388  C    -0.190125     -0.240091     -0.441917 
 C389  C    -0.166992     -0.214130      0.490310 
 C390  C    -0.213552     -0.228186      0.435976 
 C391  C    -0.282318     -0.283597      0.448685 
 C392  C    -0.309372     -0.303875     -0.482845 
 C393  C    -0.261805     -0.281677     -0.426996 
 O394  O    -0.193014     -0.206381      0.369128 
 C395  C    -0.242622     -0.255864      0.314481 
 C396  C    -0.217340     -0.233213      0.241036 
 C397  C    -0.268982     -0.280496      0.186490 
 C398  C    -0.258185     -0.423398      0.171035 
 O399  O    -0.286559     -0.315136     -0.364281 
 C400  C    -0.235680     -0.293048     -0.306125 
 C401  C    -0.269404     -0.309037     -0.231951 
 C402  C    -0.320335     -0.200668     -0.204523 
 C403  C    -0.280279     -0.068466     -0.203338 
 H404  H    -0.322786     -0.288547      0.403640 
 H405  H    -0.152794     -0.241627     -0.395061 
 H406  H    -0.191016     -0.364507     -0.311114 
 H407  H    -0.208091     -0.202227     -0.303958 
 H408  H    -0.250870     -0.356386      0.320556 
 H409  H    -0.293185     -0.207007      0.322241 
 H410  H    -0.291021     -0.402052     -0.229543 
 H411  H    -0.225201     -0.301788     -0.193690 
 H412  H    -0.212858     -0.132067      0.234979 
 H413  H    -0.161476     -0.263463      0.230766 
 H414  H    -0.326865     -0.244741      0.202690 
 H415  H    -0.262269     -0.228775      0.136181 
 H416  H    -0.371520     -0.199631     -0.234763 
 H417  H    -0.339095     -0.219313     -0.149122 
 H418  H    -0.230968     -0.079976     -0.176041 
 H419  H    -0.267521     -0.032945     -0.257921 
 H420  H    -0.317516     -0.006046     -0.175873 
 H421  H    -0.204236     -0.445219      0.151469 
 H422  H    -0.265753     -0.473232      0.218766 
 H423  H    -0.293214     -0.465897      0.126631 
loop_  
_geom_bond_atom_site_label_1  
_geom_bond_atom_site_label_2  
Cu0   Cu1 
Cu0   O4 
Cu0   O7 
Cu0   O10 
Cu0   O13 
Cu0   N82 
Cu1   O2 
Cu1   O5 
Cu1   O8 
Cu1   O11 
Cu1   N276 
O2   C3 
C3   O4 
C3   C29 
O5   C6 
C6   O7 
C6   C88 
O8   C9 
C9   O10 
C9   C180 
O11   C12 
C12   O13 
C12   C121 
Cu14   Cu15 
Cu14   O18 
Cu14   O21 
Cu14   O24 
Cu14   O27 
Cu14   N174 
Cu15   O16 
Cu15   O19 
Cu15   O22 
Cu15   O25 
Cu15   N368 
O16   C17 
C17   O18 
C17   C124 
O19   C20 
C20   O21 
C20   C177 
O22   C23 
C23   O24 
C23   C85 
O25   C26 
C26   O27 
C26   C32 
C28   C29 
C28   C33 
C28   H45 
C29   C30 
C30   C31 
C30   O34 
C31   C32 
C31   H44 
C32   C33 
C33   O39 
O34   C35 
C35   C36 
C35   H48 
C35   H49 
C36   C37 
C36   H52 
C36   H53 
C37   C38 
C37   H54 
C37   H55 
C38   H61 
C38   H62 
C38   H63 
O39   C40 
C40   C41 
C40   H46 
C40   H47 
C41   C42 
C41   H50 
C41   H51 
C42   C43 
C42   H56 
C42   H57 
C43   H58 
C43   H59 
C43   H60 
N64   C65 
N64   C66 
N64   C67 
N64   Cu213 
C65   C71 
C65   H72 
C65   H73 
C66   C68 
C66   H69 
C66   H70 
C67   C74 
C67   H75 
C67   H76 
C68   H79 
C68   H80 
C68   N82 
C71   H77 
C71   H78 
C71   N82 
C74   H81 
C74   N82 
C74   H83 
C84   C85 
C84   C89 
C84   H101 
C85   C86 
C86   C87 
C86   O90 
C87   C88 
C87   H100 
C88   C89 
C89   O95 
O90   C91 
C91   C92 
C91   H104 
C91   H105 
C92   C93 
C92   H108 
C92   H109 
C93   C94 
C93   H110 
C93   H111 
C94   H117 
C94   H118 
C94   H119 
O95   C96 
C96   C97 
C96   H102 
C96   H103 
C97   C98 
C97   H106 
C97   H107 
C98   C99 
C98   H112 
C98   H113 
C99   H114 
C99   H115 
C99   H116 
C120   C121 
C120   C125 
C120   H137 
C121   C122 
C122   C123 
C122   O126 
C123   C124 
C123   H136 
C124   C125 
C125   O131 
O126   C127 
C127   C128 
C127   H140 
C127   H141 
C128   C129 
C128   H144 
C128   H145 
C129   C130 
C129   H146 
C129   H147 
C130   H153 
C130   H154 
C130   H155 
O131   C132 
C132   C133 
C132   H138 
C132   H139 
C133   C134 
C133   H142 
C133   H143 
C134   C135 
C134   H148 
C134   H149 
C135   H150 
C135   H151 
C135   H152 
N156   C157 
N156   C158 
N156   C159 
N156   Cu227 
C157   C163 
C157   H164 
C157   H165 
C158   C160 
C158   H161 
C158   H162 
C159   C166 
C159   H167 
C159   H168 
C160   H171 
C160   H172 
C160   N174 
C163   H169 
C163   H170 
C163   N174 
C166   H173 
C166   N174 
C166   H175 
C176   C177 
C176   C181 
C176   H193 
C177   C178 
C178   C179 
C178   O182 
C179   C180 
C179   H192 
C180   C181 
C181   O187 
O182   C183 
C183   C184 
C183   H196 
C183   H197 
C184   C185 
C184   H200 
C184   H201 
C185   C186 
C185   H202 
C185   H203 
C186   H209 
C186   H210 
C186   H211 
O187   C188 
C188   C189 
C188   H194 
C188   H195 
C189   C190 
C189   H198 
C189   H199 
C190   C191 
C190   H204 
C190   H205 
C191   H206 
C191   H207 
C191   H208 
Cu212   Cu213 
Cu212   O216 
Cu212   O219 
Cu212   O222 
Cu212   O225 
Cu212   N294 
Cu213   O214 
Cu213   O217 
Cu213   O220 
Cu213   O223 
O214   C215 
C215   O216 
C215   C241 
O217   C218 
C218   O219 
C218   C297 
O220   C221 
C221   O222 
C221   C389 
O223   C224 
C224   O225 
C224   C336 
Cu226   Cu227 
Cu226   O230 
Cu226   O233 
Cu226   O236 
Cu226   O239 
Cu226   N386 
Cu227   O228 
Cu227   O231 
Cu227   O234 
Cu227   O237 
O228   C229 
C229   O230 
C229   C333 
O231   C232 
C232   O233 
C232   C392 
O234   C235 
C235   O236 
C235   C300 
O237   C238 
C238   O239 
C238   C244 
C240   C241 
C240   C245 
C240   H257 
C241   C242 
C242   C243 
C242   O246 
C243   C244 
C243   H256 
C244   C245 
C245   O251 
O246   C247 
C247   C248 
C247   H260 
C247   H261 
C248   C249 
C248   H264 
C248   H265 
C249   C250 
C249   H266 
C249   H267 
C250   H273 
C250   H274 
C250   H275 
O251   C252 
C252   C253 
C252   H258 
C252   H259 
C253   C254 
C253   H262 
C253   H263 
C254   C255 
C254   H268 
C254   H269 
C255   H270 
C255   H271 
C255   H272 
N276   C277 
N276   C278 
N276   C279 
C277   C283 
C277   H284 
C277   H285 
C278   C280 
C278   H281 
C278   H282 
C279   C286 
C279   H287 
C279   H288 
C280   H291 
C280   H292 
C280   N294 
C283   H289 
C283   H290 
C283   N294 
C286   H293 
C286   N294 
C286   H295 
C296   C297 
C296   C301 
C296   H313 
C297   C298 
C298   C299 
C298   O302 
C299   C300 
C299   H312 
C300   C301 
C301   O307 
O302   C303 
C303   C304 
C303   H316 
C303   H317 
C304   C305 
C304   H320 
C304   H321 
C305   C306 
C305   H322 
C305   H323 
C306   H329 
C306   H330 
C306   H331 
O307   C308 
C308   C309 
C308   H314 
C308   H315 
C309   C310 
C309   H318 
C309   H319 
C310   C311 
C310   H324 
C310   H325 
C311   H326 
C311   H327 
C311   H328 
C332   C333 
C332   C337 
C332   H349 
C333   C334 
C334   C335 
C334   O338 
C335   C336 
C335   H348 
C336   C337 
C337   O343 
O338   C339 
C339   C340 
C339   H352 
C339   H353 
C340   C341 
C340   H356 
C340   H357 
C341   C342 
C341   H358 
C341   H359 
C342   H365 
C342   H366 
C342   H367 
O343   C344 
C344   C345 
C344   H350 
C344   H351 
C345   C346 
C345   H354 
C345   H355 
C346   C347 
C346   H360 
C346   H361 
C347   H362 
C347   H363 
C347   H364 
N368   C369 
N368   C370 
N368   C371 
C369   C375 
C369   H376 
C369   H377 
C370   C372 
C370   H373 
C370   H374 
C371   C378 
C371   H379 
C371   H380 
C372   H383 
C372   H384 
C372   N386 
C375   H381 
C375   H382 
C375   N386 
C378   H385 
C378   N386 
C378   H387 
C388   C389 
C388   C393 
C388   H405 
C389   C390 
C390   C391 
C390   O394 
C391   C392 
C391   H404 
C392   C393 
C393   O399 
O394   C395 
C395   C396 
C395   H408 
C395   H409 
C396   C397 
C396   H412 
C396   H413 
C397   C398 
C397   H414 
C397   H415 
C398   H421 
C398   H422 
C398   H423 
O399   C400 
C400   C401 
C400   H406 
C400   H407 
C401   C402 
C401   H410 
C401   H411 
C402   C403 
C402   H416 
C402   H417 
C403   H418 
C403   H419 
C403   H420 
  
#END  
