data_
_symmetry_cell_setting           triclinic 
_symmetry_space_group_name_H-M   'P 1' 
_symmetry_Int_Tables_number      1 
loop_ 
_symmetry_equiv_pos_site_id 
_symmetry_equiv_pos_as_xyz 
1 x,y,z 
_cell_length_a             18.646219        
_cell_length_b             10.528184        
_cell_length_c             19.105151        
_cell_angle_alpha          90.671201        
_cell_angle_beta           89.344477        
_cell_angle_gamma          90.288429        
loop_  
_atom_site_label   
_atom_site_type_symbol  
_atom_site_fract_x  
_atom_site_fract_y  
_atom_site_fract_z 
 Cu0  Cu     0.006941      0.020258      0.069385 
 Cu1  Cu     0.005986      0.024295     -0.066887 
 O2  O    -0.076195      0.143082     -0.052692 
 C3  C    -0.099643      0.175291      0.007854 
 O4  O    -0.066164      0.159741      0.064959 
 O5  O     0.077793      0.162883     -0.055721 
 C6  C     0.111374      0.173901      0.001669 
 O7  O     0.088112      0.139578      0.061442 
 O8  O    -0.066921     -0.113402     -0.058472 
 C9  C    -0.098283     -0.132043      0.000114 
 O10  O    -0.072953     -0.101224      0.059530 
 O11  O     0.088639     -0.095540     -0.061918 
 C12  C     0.110877     -0.134620     -0.003134 
 O13  O     0.078625     -0.119191      0.055447 
 Cu14  Cu    -0.497230     -0.480494      0.076161 
 Cu15  Cu    -0.492648     -0.479972     -0.060381 
 O16  O     0.432615     -0.345523     -0.049497 
 C17  C     0.400329     -0.325503      0.008694 
 O18  O     0.423413     -0.356064      0.068711 
 O19  O    -0.415622     -0.352698     -0.047059 
 C20  C    -0.389440     -0.326857      0.012766 
 O21  O    -0.419832     -0.350435      0.071238 
 O22  O     0.429477      0.393140     -0.055857 
 C23  C     0.401581      0.363193      0.002728 
 O24  O     0.427232      0.388698      0.062692 
 O25  O    -0.418859      0.384207     -0.052848 
 C26  C    -0.391035      0.362510      0.006377 
 O27  O    -0.418979      0.391866      0.065506 
 C28  C    -0.267199      0.368966      0.051382 
 C29  C    -0.316757      0.308684      0.007709 
 C30  C    -0.297206      0.202945     -0.033283 
 C31  C    -0.225560      0.161617     -0.032319 
 C32  C    -0.175664      0.222389      0.011088 
 C33  C    -0.196850      0.322880      0.055367 
 O34  O    -0.351014      0.145951     -0.070906 
 C35  C    -0.337515      0.035033     -0.113173 
 C36  C    -0.324868      0.073481     -0.189118 
 C37  C    -0.262692      0.167739     -0.199590 
 C38  C    -0.245201      0.197077     -0.276089 
 O39  O    -0.147079      0.377035      0.098585 
 C40  C    -0.170379      0.425321      0.165674 
 C41  C    -0.168343      0.322181      0.221069 
 C42  C    -0.220394      0.209905      0.211973 
 C43  C    -0.299558      0.246121      0.219344 
 H44  H    -0.207877      0.081126     -0.064582 
 H45  H    -0.283590      0.453808      0.080849 
 H46  H    -0.133407     -0.497081      0.179716 
 H47  H    -0.223857      0.467924      0.163204 
 H48  H    -0.292526     -0.019901     -0.092943 
 H49  H    -0.385032     -0.026773     -0.108229 
 H50  H    -0.113454      0.285378      0.223258 
 H51  H    -0.178987      0.365914      0.272601 
 H52  H    -0.315386     -0.012202     -0.221350 
 H53  H    -0.374232      0.116533     -0.208932 
 H54  H    -0.276178      0.256993     -0.172111 
 H55  H    -0.214207      0.131298     -0.174749 
 H56  H    -0.210658      0.162595      0.161073 
 H57  H    -0.208032      0.139376      0.251993 
 H58  H    -0.315429      0.311988      0.178328 
 H59  H    -0.334400      0.162180      0.214890 
 H60  H    -0.310680      0.291527      0.270368 
 H61  H    -0.291555      0.237456     -0.302791 
 H62  H    -0.200991      0.266043     -0.279415 
 H63  H    -0.227933      0.111900     -0.305173 
 N64  N     0.005094      0.017564      0.319131 
 C65  C     0.064763     -0.061079      0.291739 
 C66  C    -0.062979     -0.032055      0.290451 
 C67  C     0.015600      0.147689      0.292485 
 C68  C    -0.061699     -0.027396      0.208875 
 H69  H    -0.071105     -0.130311      0.308085 
 H70  H    -0.108143      0.023793      0.311985 
 C71  C     0.064792     -0.065845      0.210109 
 H72  H     0.115356     -0.019662      0.310789 
 H73  H     0.060788     -0.157469      0.313134 
 C74  C     0.022324      0.146411      0.210954 
 H75  H    -0.030387      0.205552      0.309821 
 H76  H     0.063812      0.190597      0.315995 
 H77  H     0.117094     -0.035076      0.188858 
 H78  H     0.055509     -0.163555      0.191015 
 H79  H    -0.072903     -0.122483      0.186890 
 H80  H    -0.103735      0.036143      0.189667 
 H81  H     0.076917      0.175344      0.195060 
 N82  N     0.008748      0.017601      0.182515 
 H83  H    -0.014510      0.214573      0.187273 
 C84  C     0.233964      0.175447      0.050137 
 C85  C     0.187176      0.221094     -0.000537 
 C86  C     0.211645      0.305607     -0.051833 
 C87  C     0.283060      0.345871     -0.051308 
 C88  C     0.329455      0.301549      0.000012 
 C89  C     0.306358      0.210743      0.048946 
 O90  O     0.168787      0.348068     -0.103951 
 C91  C     0.121619      0.449281     -0.084049 
 C92  C     0.063176      0.461354     -0.138324 
 C93  C     0.011312     -0.429355     -0.122090 
 C94  C    -0.028227     -0.443871     -0.051919 
 O95  O     0.348577      0.152819      0.097456 
 C96  C     0.421071      0.121654      0.077627 
 C97  C     0.441829     -0.005887      0.107422 
 C98  C    -0.486201     -0.055402      0.078672 
 C99  C    -0.424686      0.041346      0.082846 
 H100  H     0.300180      0.416962     -0.089180 
 H101  H     0.215877      0.106923      0.089031 
 H102  H     0.427024      0.119738      0.020336 
 H103  H     0.457086      0.195386      0.098700 
 H104  H     0.097895      0.429136     -0.032430 
 H105  H     0.153196     -0.462416     -0.079400 
 H106  H     0.443767      0.001318      0.164857 
 H107  H     0.400316     -0.077017      0.095177 
 H108  H     0.086994      0.474638     -0.190674 
 H109  H     0.032457      0.371772     -0.140807 
 H110  H     0.041085     -0.338858     -0.121578 
 H111  H    -0.027729     -0.422515     -0.164601 
 H112  H    -0.471816     -0.141101      0.107640 
 H113  H    -0.492866     -0.086724      0.023882 
 H114  H    -0.416196      0.074327      0.136840 
 H115  H    -0.374281      0.000196      0.063004 
 H116  H    -0.435621      0.125049      0.051008 
 H117  H    -0.068499     -0.369263     -0.044409 
 H118  H    -0.055769      0.463847     -0.048083 
 H119  H     0.009087     -0.435704     -0.008111 
 C120  C     0.271302     -0.340287      0.041295 
 C121  C     0.325659     -0.273941      0.006146 
 C122  C     0.310515     -0.165689     -0.032743 
 C123  C     0.239274     -0.124533     -0.037578 
 C124  C     0.184664     -0.190708     -0.002354 
 C125  C     0.199743     -0.300421      0.035838 
 O126  O     0.367955     -0.104975     -0.062507 
 C127  C     0.356808      0.003732     -0.105023 
 C128  C     0.430107      0.049527     -0.130175 
 C129  C     0.474006     -0.052386     -0.169362 
 C130  C     0.438205     -0.103613     -0.235647 
 O131  O     0.143456     -0.365146      0.065729 
 C132  C     0.158591     -0.479816      0.102320 
 C133  C     0.090216      0.449316      0.122612 
 C134  C     0.039013     -0.478589      0.172131 
 C135  C    -0.009493     -0.382352      0.136445 
 H136  H     0.226667     -0.038865     -0.066595 
 H137  H     0.285232     -0.424327      0.071246 
 H138  H     0.191958      0.458069      0.068765 
 H139  H     0.189588     -0.454790      0.149264 
 H140  H     0.322251     -0.022504     -0.149289 
 H141  H     0.329480      0.078237     -0.074150 
 H142  H     0.060609      0.418775      0.075772 
 H143  H     0.106354      0.360941      0.148002 
 H144  H     0.423127      0.132291     -0.163894 
 H145  H     0.461563      0.084220     -0.085368 
 H146  H    -0.473648     -0.011557     -0.183807 
 H147  H     0.485173     -0.131044     -0.133595 
 H148  H     0.005010      0.450960      0.198711 
 H149  H     0.070342     -0.430442      0.213111 
 H150  H    -0.044201     -0.333478      0.174823 
 H151  H     0.021414     -0.309553      0.108483 
 H152  H    -0.044542     -0.429072      0.098070 
 H153  H     0.386393     -0.149557     -0.224314 
 H154  H     0.429270     -0.026345     -0.272402 
 H155  H     0.472238     -0.173678     -0.262622 
 N156  N     0.491156     -0.494822      0.326220 
 C157  C    -0.453423      0.419857      0.296443 
 C158  C     0.421120      0.464988      0.297768 
 C159  C    -0.494019     -0.363958      0.302304 
 C160  C     0.422406      0.468458      0.215966 
 H161  H     0.408843      0.368117      0.315824 
 H162  H     0.379037     -0.472230      0.319532 
 C163  C    -0.451578      0.427576      0.214908 
 H164  H    -0.400898      0.445461      0.318453 
 H165  H    -0.465174      0.321893      0.312999 
 C166  C    -0.494220     -0.357883      0.220671 
 H167  H     0.465526     -0.299137      0.325183 
 H168  H    -0.441632     -0.332755      0.322470 
 H169  H    -0.398879      0.461952      0.196401 
 H170  H    -0.459919      0.332553      0.191334 
 H171  H     0.412463      0.372656      0.194138 
 H172  H     0.379717     -0.469929      0.196186 
 H173  H    -0.442534     -0.320703      0.201043 
 N174  N     0.492669     -0.485323      0.189787 
 H175  H     0.464056     -0.292462      0.202599 
 C176  C    -0.208466     -0.187637      0.066596 
 C177  C    -0.173437     -0.184360      0.001364 
 C178  C    -0.209153     -0.223965     -0.059444 
 C179  C    -0.279565     -0.270061     -0.053232 
 C180  C    -0.314658     -0.273071      0.011917 
 C181  C    -0.279726     -0.229172      0.072314 
 O182  O    -0.173274     -0.219696     -0.122467 
 C183  C    -0.211644     -0.219781     -0.187248 
 C184  C    -0.198090     -0.340827     -0.229812 
 C185  C    -0.226998     -0.465597     -0.198606 
 C186  C    -0.181160      0.477768     -0.140715 
 O187  O    -0.313895     -0.230878      0.136148 
 C188  C    -0.303610     -0.123410      0.182155 
 C189  C    -0.252209     -0.149391      0.241971 
 C190  C    -0.280538     -0.241660      0.297504 
 C191  C    -0.281325     -0.380447      0.273255 
 H192  H    -0.306668     -0.307042     -0.099460 
 H193  H    -0.180821     -0.156289      0.113690 
 H194  H    -0.284769     -0.041408      0.151543 
 H195  H    -0.356941     -0.098386      0.203302 
 H196  H    -0.269420     -0.204224     -0.179243 
 H197  H    -0.191518     -0.137266     -0.216555 
 H198  H    -0.200623     -0.185052      0.221539 
 H199  H    -0.239787     -0.058608      0.268269 
 H200  H    -0.221979     -0.328258     -0.281751 
 H201  H    -0.139968     -0.349641     -0.238905 
 H202  H    -0.281740     -0.451323     -0.178501 
 H203  H    -0.232049      0.463777     -0.241105 
 H204  H    -0.246742     -0.232502      0.344184 
 H205  H    -0.334788     -0.213483      0.314424 
 H206  H    -0.301356     -0.442673      0.314899 
 H207  H    -0.315274     -0.395123      0.227311 
 H208  H    -0.226845     -0.411067      0.259306 
 H209  H    -0.127590      0.451972     -0.160434 
 H210  H    -0.174613     -0.456444     -0.096309 
 H211  H    -0.205719      0.391188     -0.119568 
 Cu212  Cu    -0.001177     -0.000299     -0.430920 
 Cu213  Cu    -0.001795     -0.003179      0.432534 
 O214  O    -0.084941      0.109020      0.438952 
 C215  C    -0.108827      0.143888      0.498723 
 O216  O    -0.077599      0.128661     -0.443080 
 O217  O     0.065830      0.146042      0.439365 
 C218  C     0.097753      0.164199      0.497240 
 O219  O     0.073967      0.130896     -0.442981 
 O220  O    -0.073105     -0.147161      0.449246 
 C221  C    -0.104073     -0.163322     -0.491559 
 O222  O    -0.079170     -0.127805     -0.432701 
 O223  O     0.082560     -0.115285      0.440568 
 C224  C     0.107769     -0.147108      0.499333 
 O225  O     0.076657     -0.130088     -0.441495 
 Cu226  Cu     0.498031      0.486125     -0.424194 
 Cu227  Cu     0.498408      0.495258      0.439525 
 O228  O     0.427173     -0.365326      0.452926 
 C229  C     0.394142     -0.355307     -0.488450 
 O230  O     0.417712     -0.392889     -0.430086 
 O231  O    -0.418746     -0.387330      0.447597 
 C232  C    -0.395700     -0.355324     -0.492233 
 O233  O    -0.428735     -0.373288     -0.434408 
 O234  O     0.416710      0.375644      0.447118 
 C235  C     0.392599      0.335542     -0.494474 
 O236  O     0.425130      0.344555     -0.436183 
 O237  O    -0.430556      0.355255      0.447526 
 C238  C    -0.397486      0.338220     -0.495442 
 O239  O    -0.420306      0.369692     -0.434688 
 C240  C    -0.275033      0.327904     -0.446578 
 C241  C    -0.322541      0.287931     -0.498962 
 C242  C    -0.300363      0.204250      0.447402 
 C243  C    -0.229581      0.160298      0.446545 
 C244  C    -0.182684      0.198406      0.499653 
 C245  C    -0.204049      0.285076     -0.448133 
 O246  O    -0.347252      0.171102      0.395614 
 C247  C    -0.352250      0.039992      0.374377 
 C248  C    -0.420594     -0.018059      0.404664 
 C249  C    -0.490925      0.045371      0.382629 
 C250  C     0.494407      0.038020      0.303818 
 O251  O    -0.154580      0.323007     -0.399804 
 C252  C    -0.146276      0.456581     -0.386468 
 C253  C    -0.079615      0.476843     -0.342014 
 C254  C    -0.008318      0.443609     -0.379062 
 C255  C     0.015645     -0.457703     -0.433074 
 H256  H    -0.211506      0.096421      0.404583 
 H257  H    -0.292167      0.393508     -0.405103 
 H258  H    -0.141174     -0.493237     -0.436438 
 H259  H    -0.194436      0.492809     -0.359273 
 H260  H    -0.352172      0.036186      0.316864 
 H261  H    -0.305649     -0.014445      0.391900 
 H262  H    -0.076987     -0.422966     -0.325172 
 H263  H    -0.084940      0.420876     -0.293856 
 H264  H    -0.423052     -0.120017      0.391309 
 H265  H    -0.416652     -0.013052      0.461956 
 H266  H     0.464245      0.000237      0.411127 
 H267  H    -0.490835      0.145363      0.400253 
 H268  H     0.033786      0.434371     -0.339535 
 H269  H    -0.012728      0.349607     -0.404639 
 H270  H     0.024559     -0.364255     -0.408383 
 H271  H     0.065848     -0.486208     -0.459392 
 H272  H    -0.024641     -0.444868     -0.473772 
 H273  H    -0.464018      0.087704      0.273325 
 H274  H     0.492336     -0.061002      0.285109 
 H275  H     0.442741      0.082175      0.291852 
 N276  N     0.007044      0.016297     -0.180621 
 C277  C    -0.056911      0.082932     -0.206483 
 C278  C     0.071492      0.077974     -0.210907 
 C279  C     0.004822     -0.116479     -0.206939 
 C280  C     0.070896      0.067616     -0.292552 
 H281  H     0.072369      0.178430     -0.194033 
 H282  H     0.120040      0.034092     -0.189567 
 C283  C    -0.057301      0.083484     -0.288269 
 H284  H    -0.105140      0.034676     -0.185804 
 H285  H    -0.057712      0.180948     -0.185438 
 C286  C    -0.001534     -0.120739     -0.288318 
 H287  H     0.054187     -0.164512     -0.190685 
 H288  H    -0.040439     -0.167520     -0.182388 
 H289  H    -0.108005      0.043838     -0.308331 
 H290  H    -0.052958      0.181437     -0.307726 
 H291  H     0.077469      0.162440     -0.315745 
 H292  H     0.115930      0.008961     -0.311865 
 H293  H    -0.053255     -0.163462     -0.303556 
 N294  N     0.003307      0.008865     -0.317162 
 H295  H     0.040790     -0.180742     -0.311903 
 C296  C     0.268110      0.358687      0.465149 
 C297  C     0.316573      0.287895     -0.495896 
 C298  C     0.293828      0.178583     -0.460728 
 C299  C     0.221816      0.141239     -0.465301 
 C300  C     0.173350      0.212560      0.496514 
 C301  C     0.195670      0.321793      0.461000 
 O302  O     0.342823      0.109933     -0.424500 
 C303  C     0.317955      0.011604     -0.378507 
 C304  C     0.277064      0.068206     -0.316026 
 C305  C     0.314692      0.181847     -0.281103 
 C306  C     0.270393      0.239186     -0.220864 
 O307  O     0.144772      0.388758      0.425802 
 C308  C     0.165779      0.488233      0.378744 
 C309  C     0.179646      0.434780      0.305158 
 C310  C     0.235238      0.327627      0.300009 
 C311  C     0.251020      0.282972      0.224865 
 H312  H     0.202697      0.054656     -0.440045 
 H313  H     0.287560      0.444176      0.439105 
 H314  H     0.121184     -0.443970      0.378051 
 H315  H     0.211986     -0.457279      0.398273 
 H316  H     0.285479     -0.058420     -0.407509 
 H317  H     0.365268     -0.039886     -0.360778 
 H318  H     0.128684      0.399577      0.283626 
 H319  H     0.197013     -0.486594      0.271374 
 H320  H     0.223541      0.098922     -0.332129 
 H321  H     0.267877     -0.006474     -0.277044 
 H322  H     0.367486      0.152839     -0.262279 
 H323  H     0.325493      0.255514     -0.320297 
 H324  H     0.285419      0.359487      0.324318 
 H325  H     0.216239      0.245845      0.330613 
 H326  H     0.202782      0.243728      0.200045 
 H327  H     0.271023      0.361006      0.192183 
 H328  H     0.291979      0.208278      0.223955 
 H329  H     0.218140      0.272530     -0.239064 
 H330  H     0.260022      0.169596     -0.179537 
 H331  H     0.298360      0.320634     -0.197236 
 C332  C     0.303976     -0.217914      0.456343 
 C333  C     0.319674     -0.301960     -0.489975 
 C334  C     0.266485     -0.338860     -0.441484 
 C335  C     0.197677     -0.286409     -0.445960 
 C336  C     0.181756     -0.203010     -0.499938 
 C337  C     0.234282     -0.170233      0.449935 
 O338  O     0.284391     -0.426200     -0.392056 
 C339  C     0.230183     -0.491968     -0.352377 
 C340  C     0.228245     -0.440431     -0.277395 
 C341  C     0.212209     -0.297845     -0.269770 
 C342  C     0.213992     -0.250467     -0.193711 
 O343  O     0.216475     -0.088211      0.397872 
 C344  C     0.262031     -0.075626      0.337200 
 C345  C     0.261433     -0.199205      0.294294 
 C346  C     0.300185     -0.189712      0.223190 
 C347  C     0.260419     -0.108023      0.170555 
 H348  H     0.156095     -0.310075     -0.407554 
 H349  H     0.346477     -0.189795      0.419755 
 H350  H     0.240308      0.003227      0.306818 
 H351  H     0.316535     -0.046623      0.352513 
 H352  H     0.177253     -0.488199     -0.377093 
 H353  H     0.245399      0.407166     -0.353032 
 H354  H     0.286041     -0.276142      0.324107 
 H355  H     0.205504     -0.229235      0.285619 
 H356  H     0.188023     -0.494435     -0.247337 
 H357  H     0.279980     -0.459865     -0.252663 
 H358  H     0.251513     -0.243474     -0.300897 
 H359  H     0.159204     -0.277898     -0.291719 
 H360  H     0.354713     -0.151848      0.230858 
 H361  H     0.306839     -0.285775      0.200766 
 H362  H     0.207324     -0.148336      0.159254 
 H363  H     0.253282     -0.010142      0.189662 
 H364  H     0.289559     -0.103269      0.120454 
 H365  H     0.266600     -0.267375     -0.170240 
 H366  H     0.203349     -0.148077     -0.190087 
 H367  H     0.173387     -0.298683     -0.161329 
 N368  N    -0.495037     -0.495587     -0.174089 
 C369  C    -0.473488      0.377075     -0.200088 
 C370  C     0.432270     -0.468813     -0.200228 
 C371  C    -0.444826     -0.401531     -0.204215 
 C372  C     0.431757     -0.470407     -0.281916 
 H373  H     0.394790      0.459329     -0.179489 
 H374  H     0.414053     -0.376060     -0.179619 
 C375  C    -0.477661      0.369313     -0.281651 
 H376  H    -0.418287      0.358166     -0.183049 
 H377  H     0.491959      0.304527     -0.175675 
 C378  C    -0.443732     -0.411469     -0.285888 
 H379  H    -0.461047     -0.305841     -0.186571 
 H380  H    -0.391011     -0.417448     -0.183171 
 H381  H    -0.425675      0.339265     -0.304114 
 H382  H     0.482195      0.298157     -0.298279 
 H383  H     0.391203      0.462112     -0.301781 
 H384  H     0.417345     -0.375926     -0.301490 
 H385  H    -0.390142     -0.440190     -0.305171 
 N386  N    -0.497076      0.493986     -0.310604 
 H387  H    -0.454984     -0.318539     -0.309217 
 C388  C    -0.268673     -0.366819      0.469271 
 C389  C    -0.320555     -0.304001     -0.490107 
 C390  C    -0.302422     -0.197698     -0.449097 
 C391  C    -0.231039     -0.153716     -0.449117 
 C392  C    -0.179080     -0.216489     -0.490117 
 C393  C    -0.197083     -0.325217      0.470840 
 O394  O    -0.356698     -0.142311     -0.411152 
 C395  C    -0.348420     -0.013237     -0.388793 
 C396  C    -0.418107      0.034126     -0.355715 
 C397  C    -0.482261      0.044279     -0.405266 
 C398  C     0.488063     -0.083161     -0.432596 
 O399  O    -0.142562     -0.387851      0.437193 
 C400  C    -0.156337      0.488588      0.408423 
 C401  C    -0.085873      0.419563      0.396132 
 C402  C    -0.036272      0.477144      0.340138 
 C403  C    -0.015062     -0.383977      0.352923 
 H404  H    -0.216056     -0.069871     -0.418277 
 H405  H    -0.284157     -0.449517      0.437689 
 H406  H    -0.190356      0.434054      0.444611 
 H407  H    -0.185671      0.499303      0.359368 
 H408  H    -0.305267     -0.009339     -0.350176 
 H409  H    -0.332548      0.045676     -0.433695 
 H410  H    -0.056658      0.412233      0.445679 
 H411  H    -0.098574      0.321226      0.380540 
 H412  H    -0.432888     -0.027231     -0.311547 
 H413  H    -0.407851      0.128891     -0.333042 
 H414  H     0.474632      0.095835     -0.377481 
 H415  H    -0.467521      0.105121     -0.449689 
 H416  H     0.012540      0.419124      0.336466 
 H417  H    -0.062501      0.468927      0.289118 
 H418  H    -0.061481     -0.321040      0.348900 
 H419  H     0.008102     -0.369114      0.405065 
 H420  H     0.024666     -0.352588      0.314008 
 H421  H    -0.472750     -0.135294     -0.464860 
 H422  H     0.471963     -0.146044     -0.389685 
 H423  H     0.440975     -0.068800     -0.465539 
loop_  
_geom_bond_atom_site_label_1  
_geom_bond_atom_site_label_2  
Cu0   Cu1 
Cu0   O4 
Cu0   O7 
Cu0   O10 
Cu0   O13 
Cu0   N82 
Cu1   O2 
Cu1   O5 
Cu1   O8 
Cu1   O11 
Cu1   N276 
O2   C3 
C3   O4 
C3   C32 
O5   C6 
C6   O7 
C6   C85 
O8   C9 
C9   O10 
C9   C177 
O11   C12 
C12   O13 
C12   C124 
Cu14   Cu15 
Cu14   O18 
Cu14   O21 
Cu14   O24 
Cu14   O27 
Cu14   N174 
Cu15   O16 
Cu15   O19 
Cu15   O22 
Cu15   O25 
Cu15   N368 
O16   C17 
C17   O18 
C17   C121 
O19   C20 
C20   O21 
C20   C180 
O22   C23 
C23   O24 
C23   C88 
O25   C26 
C26   O27 
C26   C29 
C28   C29 
C28   C33 
C28   H45 
C29   C30 
C30   C31 
C30   O34 
C31   C32 
C31   H44 
C32   C33 
C33   O39 
O34   C35 
C35   C36 
C35   H48 
C35   H49 
C36   C37 
C36   H52 
C36   H53 
C37   C38 
C37   H54 
C37   H55 
C38   H61 
C38   H62 
C38   H63 
O39   C40 
C40   C41 
C40   H46 
C40   H47 
C41   C42 
C41   H50 
C41   H51 
C42   C43 
C42   H56 
C42   H57 
C43   H58 
C43   H59 
C43   H60 
N64   C65 
N64   C66 
N64   C67 
N64   Cu213 
C65   C71 
C65   H72 
C65   H73 
C66   C68 
C66   H69 
C66   H70 
C67   C74 
C67   H75 
C67   H76 
C68   H79 
C68   H80 
C68   N82 
C71   H77 
C71   H78 
C71   N82 
C74   H81 
C74   N82 
C74   H83 
C84   C85 
C84   C89 
C84   H101 
C85   C86 
C86   C87 
C86   O90 
C87   C88 
C87   H100 
C88   C89 
C89   O95 
O90   C91 
C91   C92 
C91   H104 
C91   H105 
C92   C93 
C92   H108 
C92   H109 
C93   C94 
C93   H110 
C93   H111 
C94   H117 
C94   H118 
C94   H119 
O95   C96 
C96   C97 
C96   H102 
C96   H103 
C97   C98 
C97   H106 
C97   H107 
C98   C99 
C98   H112 
C98   H113 
C99   H114 
C99   H115 
C99   H116 
C120   C121 
C120   C125 
C120   H137 
C121   C122 
C122   C123 
C122   O126 
C123   C124 
C123   H136 
C124   C125 
C125   O131 
O126   C127 
C127   C128 
C127   H140 
C127   H141 
C128   C129 
C128   H144 
C128   H145 
C129   C130 
C129   H146 
C129   H147 
C130   H153 
C130   H154 
C130   H155 
O131   C132 
C132   C133 
C132   H138 
C132   H139 
C133   C134 
C133   H142 
C133   H143 
C134   C135 
C134   H148 
C134   H149 
C135   H150 
C135   H151 
C135   H152 
N156   C157 
N156   C158 
N156   C159 
N156   Cu227 
C157   C163 
C157   H164 
C157   H165 
C158   C160 
C158   H161 
C158   H162 
C159   C166 
C159   H167 
C159   H168 
C160   H171 
C160   H172 
C160   N174 
C163   H169 
C163   H170 
C163   N174 
C166   H173 
C166   N174 
C166   H175 
C176   C177 
C176   C181 
C176   H193 
C177   C178 
C178   C179 
C178   O182 
C179   C180 
C179   H192 
C180   C181 
C181   O187 
O182   C183 
C183   C184 
C183   H196 
C183   H197 
C184   C185 
C184   H200 
C184   H201 
C185   C186 
C185   H202 
C185   H203 
C186   H209 
C186   H210 
C186   H211 
O187   C188 
C188   C189 
C188   H194 
C188   H195 
C189   C190 
C189   H198 
C189   H199 
C190   C191 
C190   H204 
C190   H205 
C191   H206 
C191   H207 
C191   H208 
Cu212   Cu213 
Cu212   O216 
Cu212   O219 
Cu212   O222 
Cu212   O225 
Cu212   N294 
Cu213   O214 
Cu213   O217 
Cu213   O220 
Cu213   O223 
O214   C215 
C215   O216 
C215   C244 
O217   C218 
C218   O219 
C218   C300 
O220   C221 
C221   O222 
C221   C392 
O223   C224 
C224   O225 
C224   C336 
Cu226   Cu227 
Cu226   O230 
Cu226   O233 
Cu226   O236 
Cu226   O239 
Cu226   N386 
Cu227   O228 
Cu227   O231 
Cu227   O234 
Cu227   O237 
O228   C229 
C229   O230 
C229   C333 
O231   C232 
C232   O233 
C232   C389 
O234   C235 
C235   O236 
C235   C297 
O237   C238 
C238   O239 
C238   C241 
C240   C241 
C240   C245 
C240   H257 
C241   C242 
C242   C243 
C242   O246 
C243   C244 
C243   H256 
C244   C245 
C245   O251 
O246   C247 
C247   C248 
C247   H260 
C247   H261 
C248   C249 
C248   H264 
C248   H265 
C249   C250 
C249   H266 
C249   H267 
C250   H273 
C250   H274 
C250   H275 
O251   C252 
C252   C253 
C252   H258 
C252   H259 
C253   C254 
C253   H262 
C253   H263 
C254   C255 
C254   H268 
C254   H269 
C255   H270 
C255   H271 
C255   H272 
N276   C277 
N276   C278 
N276   C279 
C277   C283 
C277   H284 
C277   H285 
C278   C280 
C278   H281 
C278   H282 
C279   C286 
C279   H287 
C279   H288 
C280   H291 
C280   H292 
C280   N294 
C283   H289 
C283   H290 
C283   N294 
C286   H293 
C286   N294 
C286   H295 
C296   C297 
C296   C301 
C296   H313 
C297   C298 
C298   C299 
C298   O302 
C299   C300 
C299   H312 
C300   C301 
C301   O307 
O302   C303 
C303   C304 
C303   H316 
C303   H317 
C304   C305 
C304   H320 
C304   H321 
C305   C306 
C305   H322 
C305   H323 
C306   H329 
C306   H330 
C306   H331 
O307   C308 
C308   C309 
C308   H314 
C308   H315 
C309   C310 
C309   H318 
C309   H319 
C310   C311 
C310   H324 
C310   H325 
C311   H326 
C311   H327 
C311   H328 
C332   C333 
C332   C337 
C332   H349 
C333   C334 
C334   C335 
C334   O338 
C335   C336 
C335   H348 
C336   C337 
C337   O343 
O338   C339 
C339   C340 
C339   H352 
C339   H353 
C340   C341 
C340   H356 
C340   H357 
C341   C342 
C341   H358 
C341   H359 
C342   H365 
C342   H366 
C342   H367 
O343   C344 
C344   C345 
C344   H350 
C344   H351 
C345   C346 
C345   H354 
C345   H355 
C346   C347 
C346   H360 
C346   H361 
C347   H362 
C347   H363 
C347   H364 
N368   C369 
N368   C370 
N368   C371 
C369   C375 
C369   H376 
C369   H377 
C370   C372 
C370   H373 
C370   H374 
C371   C378 
C371   H379 
C371   H380 
C372   H383 
C372   H384 
C372   N386 
C375   H381 
C375   H382 
C375   N386 
C378   H385 
C378   N386 
C378   H387 
C388   C389 
C388   C393 
C388   H405 
C389   C390 
C390   C391 
C390   O394 
C391   C392 
C391   H404 
C392   C393 
C393   O399 
O394   C395 
C395   C396 
C395   H408 
C395   H409 
C396   C397 
C396   H412 
C396   H413 
C397   C398 
C397   H414 
C397   H415 
C398   H421 
C398   H422 
C398   H423 
O399   C400 
C400   C401 
C400   H406 
C400   H407 
C401   C402 
C401   H410 
C401   H411 
C402   C403 
C402   H416 
C402   H417 
C403   H418 
C403   H419 
C403   H420 
  
#END  
