data_
_symmetry_cell_setting           triclinic 
_symmetry_space_group_name_H-M   'P 1' 
_symmetry_Int_Tables_number      1 
loop_ 
_symmetry_equiv_pos_site_id 
_symmetry_equiv_pos_as_xyz 
1 x,y,z 
_cell_length_a             16.168390        
_cell_length_b             14.704780        
_cell_length_c             18.969293        
_cell_angle_alpha          90.790494        
_cell_angle_beta           86.271016        
_cell_angle_gamma          89.869283        
loop_  
_atom_site_label   
_atom_site_type_symbol  
_atom_site_fract_x  
_atom_site_fract_y  
_atom_site_fract_z 
 Cu0  Cu    -0.008688      0.010770      0.077870 
 Cu1  Cu    -0.000368      0.016756     -0.061698 
 O2  O    -0.094855      0.109146     -0.047180 
 C3  C    -0.128383      0.125253      0.017061 
 O4  O    -0.105823      0.093288      0.076736 
 O5  O     0.074667      0.122290     -0.057805 
 C6  C     0.106161      0.137517     -0.000168 
 O7  O     0.079334      0.100931      0.055976 
 O8  O    -0.088312     -0.086810     -0.040428 
 C9  C    -0.114502     -0.119496      0.019193 
 O10  O    -0.093291     -0.090157      0.079400 
 O11  O     0.093842     -0.076843     -0.053050 
 C12  C     0.119114     -0.098872      0.006943 
 O13  O     0.090815     -0.070766      0.066710 
 Cu14  Cu     0.494446     -0.494969      0.063349 
 Cu15  Cu     0.499103     -0.489414     -0.071526 
 O16  O     0.411545     -0.391027     -0.056167 
 C17  C     0.384730     -0.364572      0.007713 
 O18  O     0.421290     -0.386072      0.062438 
 O19  O    -0.407143     -0.401740     -0.066971 
 C20  C    -0.377197     -0.383999     -0.005098 
 O21  O    -0.400979     -0.421895      0.051661 
 O22  O     0.406026      0.415410     -0.057017 
 C23  C     0.376401      0.391301      0.004726 
 O24  O     0.397434      0.427992      0.061300 
 O25  O    -0.416689      0.415779     -0.061160 
 C26  C    -0.395401      0.378974     -0.003562 
 O27  O    -0.431558      0.395202      0.058603 
 C28  C    -0.238029      0.193216     -0.048828 
 C29  C    -0.200767      0.185602      0.015925 
 C30  C    -0.228622      0.235387      0.073493 
 C31  C    -0.294554      0.294788      0.064914 
 C32  C    -0.330421      0.304570      0.000625 
 C33  C    -0.299518      0.256660     -0.059564 
 O34  O    -0.203544      0.219705      0.143002 
 C35  C    -0.207278      0.295346      0.191744 
 C36  C    -0.164083      0.262917      0.254649 
 C37  C    -0.156605      0.332819      0.311091 
 C38  C    -0.236041      0.394363      0.324009 
 O39  O    -0.327375      0.274194     -0.124803 
 C40  C    -0.275746      0.248396     -0.191833 
 C41  C    -0.287510      0.150279     -0.219397 
 C42  C    -0.374193      0.139815     -0.256390 
 C43  C    -0.368436      0.173964     -0.334419 
 H44  H    -0.312754      0.334985      0.112506 
 H45  H    -0.212176      0.150544     -0.097277 
 H46  H    -0.285884      0.295382     -0.232816 
 H47  H    -0.210679      0.250649     -0.179259 
 H48  H    -0.181007      0.357106      0.165688 
 H49  H    -0.272274      0.314022      0.204675 
 H50  H    -0.236446      0.135955     -0.262794 
 H51  H    -0.281139      0.098956     -0.178530 
 H52  H    -0.197546      0.209684      0.282336 
 H53  H    -0.104829      0.233227      0.239091 
 H54  H    -0.133544      0.301870      0.358425 
 H55  H    -0.106386      0.376187      0.289187 
 H56  H    -0.397299      0.068455     -0.252777 
 H57  H    -0.419766      0.179453     -0.229633 
 H58  H    -0.429848      0.175882     -0.355579 
 H59  H    -0.343210      0.240444     -0.338696 
 H60  H    -0.331513      0.127066     -0.372028 
 H61  H    -0.236158      0.433318      0.273881 
 H62  H    -0.293112      0.352303      0.326279 
 H63  H    -0.234492      0.428525      0.375850 
 N64  N    -0.015768      0.000141      0.332855 
 C65  C     0.044852      0.066654      0.301560 
 C66  C     0.010694     -0.089694      0.296846 
 C67  C    -0.097310      0.020411      0.312017 
 C68  C     0.020552     -0.079061      0.215255 
 H69  H     0.064552     -0.113774      0.319543 
 H70  H    -0.038047     -0.142546      0.310164 
 C71  C     0.032453      0.080454      0.221167 
 H72  H     0.029694      0.136684      0.324514 
 H73  H     0.108660      0.040916      0.310392 
 C74  C    -0.103259      0.013441      0.229385 
 H75  H    -0.136093     -0.036565      0.330949 
 H76  H    -0.117702      0.084485      0.332174 
 H77  H    -0.001517      0.144060      0.211343 
 H78  H     0.096883      0.085187      0.195804 
 H79  H     0.087450     -0.069696      0.198527 
 H80  H     0.002654     -0.136519      0.185196 
 H81  H    -0.126056      0.074253      0.208718 
 N82  N    -0.019352      0.006853      0.193144 
 H83  H    -0.137685     -0.043727      0.213869 
 C84  C     0.241350      0.183234      0.038088 
 C85  C     0.172227      0.205677      0.004085 
 C86  C     0.168872      0.288038     -0.031271 
 C87  C     0.235883      0.350155     -0.034579 
 C88  C     0.304992      0.326796      0.003762 
 C89  C     0.307142      0.247285      0.037574 
 O90  O     0.097351      0.310616     -0.061144 
 C91  C     0.043551      0.374694     -0.028107 
 C92  C    -0.015770      0.410106     -0.081775 
 C93  C    -0.070026      0.489958     -0.047032 
 C94  C    -0.137532     -0.480050     -0.099591 
 O95  O     0.372948      0.226985      0.078668 
 C96  C     0.412369      0.137593      0.073697 
 C97  C     0.469208      0.132077      0.009738 
 C98  C     0.494960      0.035387     -0.017435 
 C99  C    -0.419486      0.031107     -0.051346 
 H100  H     0.229640      0.419101     -0.064224 
 H101  H     0.244859      0.115754      0.063230 
 H102  H     0.442546      0.125970      0.123783 
 H103  H     0.362212      0.083339      0.070586 
 H104  H     0.003470      0.345932      0.017653 
 H105  H     0.083927      0.426020     -0.002091 
 H106  H     0.438092      0.161892     -0.032100 
 H107  H    -0.476799      0.176088      0.010415 
 H108  H     0.025280      0.433290     -0.128105 
 H109  H    -0.054701      0.354457     -0.103765 
 H110  H    -0.100813      0.460991      0.002769 
 H111  H    -0.038959     -0.453366     -0.019970 
 H112  H     0.487235     -0.012953      0.026580 
 H113  H     0.448699      0.012379     -0.054375 
 H114  H    -0.411434     -0.034790     -0.081011 
 H115  H    -0.414109      0.087278     -0.092591 
 H116  H    -0.370451      0.035682     -0.018227 
 H117  H    -0.168409     -0.417858     -0.079456 
 H118  H    -0.110713     -0.471537     -0.156255 
 H119  H    -0.188723      0.472813     -0.102386 
 C120  C     0.261365     -0.308473     -0.039593 
 C121  C     0.313221     -0.298664      0.013455 
 C122  C     0.306998     -0.231754      0.066367 
 C123  C     0.250780     -0.160610      0.057865 
 C124  C     0.190814     -0.169275      0.005601 
 C125  C     0.198527     -0.244980     -0.043645 
 O126  O     0.355798     -0.236908      0.122387 
 C127  C     0.429265     -0.187612      0.115506 
 C128  C     0.462319     -0.183730      0.189933 
 C129  C    -0.467926     -0.120438      0.206888 
 C130  C    -0.392767     -0.146618      0.155616 
 O131  O     0.141695     -0.246250     -0.096125 
 C132  C     0.125017     -0.337463     -0.122077 
 C133  C     0.051104     -0.332267     -0.167593 
 C134  C     0.041753     -0.276781     -0.233905 
 C135  C     0.076668     -0.324233     -0.302631 
 H136  H     0.250875     -0.100031      0.087370 
 H137  H     0.276466     -0.365559     -0.075102 
 H138  H     0.176504     -0.360786     -0.155891 
 H139  H     0.114584     -0.382592     -0.078711 
 H140  H     0.474229     -0.221574      0.081503 
 H141  H     0.418239     -0.122099      0.088897 
 H142  H     0.052250     -0.406643     -0.188072 
 H143  H    -0.009158     -0.319630     -0.134725 
 H144  H     0.408681     -0.172232      0.228752 
 H145  H     0.487594     -0.251832      0.202342 
 H146  H    -0.482723     -0.049509      0.202736 
 H147  H    -0.450223     -0.126119      0.260046 
 H148  H    -0.024306     -0.266322     -0.238047 
 H149  H     0.077044     -0.210872     -0.228722 
 H150  H     0.071648     -0.275893     -0.346314 
 H151  H     0.137519     -0.346636     -0.297696 
 H152  H     0.040336     -0.385752     -0.309579 
 H153  H    -0.373393     -0.217555      0.157843 
 H154  H    -0.398640     -0.124276      0.100547 
 H155  H    -0.335223     -0.116481      0.178157 
 N156  N     0.489195      0.493489      0.313697 
 C157  C     0.496844      0.398685      0.287776 
 C158  C     0.411454     -0.470110      0.289951 
 C159  C    -0.435558     -0.462504      0.282710 
 C160  C     0.407394     -0.471821      0.207403 
 H161  H     0.360431      0.493729      0.315515 
 H162  H     0.404178     -0.397973      0.309396 
 C163  C    -0.499284      0.399554      0.204114 
 H164  H    -0.447340      0.361261      0.300557 
 H165  H     0.444388      0.357496      0.309059 
 C166  C    -0.438990     -0.460351      0.202828 
 H167  H    -0.423033     -0.393026      0.303695 
 H168  H    -0.382100      0.494307      0.295750 
 H169  H    -0.441256      0.370859      0.185948 
 H170  H     0.452589      0.359569      0.183243 
 H171  H     0.360272      0.481165      0.191274 
 H172  H     0.394058     -0.403874      0.188582 
 H173  H    -0.378052     -0.480870      0.173617 
 N174  N     0.490827      0.490113      0.178879 
 H175  H    -0.444598     -0.392151      0.182051 
 C176  C    -0.282339     -0.299824      0.067342 
 C177  C    -0.309400     -0.316483     -0.001161 
 C178  C    -0.268580     -0.271723     -0.061212 
 C179  C    -0.207366     -0.210171     -0.049864 
 C180  C    -0.176261     -0.193849      0.016395 
 C181  C    -0.208535     -0.246642      0.073122 
 O182  O    -0.293205     -0.288046     -0.132385 
 C183  C    -0.283914     -0.221589     -0.185932 
 C184  C    -0.263083     -0.268835     -0.259461 
 C185  C    -0.181833     -0.325925     -0.265114 
 C186  C    -0.153184     -0.340803     -0.345680 
 O187  O    -0.170714     -0.232583      0.134093 
 C188  C    -0.145219     -0.312459      0.171280 
 C189  C    -0.121912     -0.282119      0.245560 
 C190  C    -0.192287     -0.221496      0.283512 
 C191  C    -0.272668     -0.276722      0.301002 
 H192  H    -0.181864     -0.172059     -0.093235 
 H193  H    -0.312729     -0.328195      0.115587 
 H194  H    -0.204118     -0.351684      0.170958 
 H195  H    -0.098290     -0.347031      0.136334 
 H196  H    -0.346128     -0.187808     -0.184257 
 H197  H    -0.241687     -0.167674     -0.171540 
 H198  H    -0.113398     -0.340359      0.281701 
 H199  H    -0.057030     -0.251159      0.242743 
 H200  H    -0.316453     -0.305363     -0.275813 
 H201  H    -0.249168     -0.216690     -0.300338 
 H202  H    -0.138367     -0.289580     -0.233572 
 H203  H    -0.187105     -0.389995     -0.239421 
 H204  H    -0.160533     -0.197902      0.332871 
 H205  H    -0.216436     -0.156526      0.258436 
 H206  H    -0.305454     -0.299953      0.251458 
 H207  H    -0.259804     -0.323745      0.336013 
 H208  H    -0.315523     -0.232997      0.332518 
 H209  H    -0.198682     -0.391018     -0.365456 
 H210  H    -0.157937     -0.276399     -0.372932 
 H211  H    -0.090090     -0.370601     -0.351376 
 Cu212  Cu    -0.005311      0.006732     -0.420683 
 Cu213  Cu    -0.007144     -0.011030      0.438661 
 O214  O    -0.102138      0.075135      0.449372 
 C215  C    -0.120866      0.115972     -0.491750 
 O216  O    -0.087403      0.100710     -0.431963 
 O217  O     0.069088      0.101007      0.457373 
 C218  C     0.104762      0.125913     -0.487394 
 O219  O     0.083836      0.095941     -0.426796 
 O220  O    -0.077499     -0.109886      0.454384 
 C221  C    -0.115735     -0.127594     -0.487736 
 O222  O    -0.102470     -0.089382     -0.429908 
 O223  O     0.085797     -0.091409      0.436265 
 C224  C     0.110504     -0.121121      0.495585 
 O225  O     0.080730     -0.095041     -0.444315 
 Cu226  Cu     0.496532      0.495942     -0.439962 
 Cu227  Cu    -0.498422     -0.494329      0.420385 
 O228  O     0.428485     -0.389617      0.446919 
 C229  C     0.387812     -0.380078     -0.494002 
 O230  O     0.401237     -0.421500     -0.436079 
 O231  O    -0.400763     -0.412100      0.430233 
 C232  C    -0.387847     -0.381743      0.492599 
 O233  O    -0.429165     -0.407536     -0.448817 
 O234  O     0.392632      0.428790      0.425105 
 C235  C     0.375174      0.381781      0.482108 
 O236  O     0.407833      0.394301     -0.460203 
 O237  O    -0.416542      0.393522      0.430641 
 C238  C    -0.394706      0.367301      0.490673 
 O239  O    -0.423288      0.391959     -0.449430 
 C240  C    -0.245556      0.165623      0.455460 
 C241  C    -0.188235      0.187787     -0.496506 
 C242  C    -0.199373      0.264413     -0.453693 
 C243  C    -0.269955      0.313902     -0.457307 
 C244  C    -0.323863      0.297989      0.490681 
 C245  C    -0.312843      0.222171      0.445268 
 O246  O    -0.137159      0.281568     -0.409989 
 C247  C    -0.130795      0.370483     -0.375848 
 C248  C    -0.064958      0.360160     -0.321139 
 C249  C     0.021979      0.364354     -0.359063 
 C250  C     0.091375      0.381615     -0.309436 
 O251  O    -0.368412      0.212514      0.394262 
 C252  C    -0.370978      0.139640      0.345987 
 C253  C    -0.456957      0.119078      0.321354 
 C254  C     0.481763      0.085565      0.380455 
 C255  C     0.392471      0.112693      0.368272 
 H256  H    -0.278305      0.372775     -0.426405 
 H257  H    -0.235857      0.110124      0.418374 
 H258  H    -0.323116      0.154635      0.297872 
 H259  H    -0.346885      0.081373      0.374762 
 H260  H    -0.117610      0.425206     -0.410708 
 H261  H    -0.191693      0.374882     -0.353336 
 H262  H    -0.485361      0.173293      0.286872 
 H263  H    -0.448089      0.058168      0.286593 
 H264  H    -0.074751      0.417018     -0.285391 
 H265  H    -0.080029      0.300048     -0.288366 
 H266  H     0.031665      0.301345     -0.391582 
 H267  H     0.018866      0.417246     -0.400485 
 H268  H     0.482543      0.011147      0.384756 
 H269  H     0.496739      0.122099      0.429261 
 H270  H     0.376157      0.110829      0.313089 
 H271  H     0.354591      0.064691      0.398651 
 H272  H     0.366607      0.179664      0.388365 
 H273  H     0.081284      0.331672     -0.264459 
 H274  H     0.153258      0.362668     -0.334247 
 H275  H     0.081088      0.455020     -0.287848 
 N276  N    -0.012844      0.024396     -0.169775 
 C277  C    -0.016004      0.117343     -0.200308 
 C278  C     0.065311     -0.018985     -0.197730 
 C279  C    -0.079950     -0.029260     -0.194464 
 C280  C     0.062024     -0.030334     -0.282084 
 H281  H     0.120562      0.017631     -0.183010 
 H282  H     0.070801     -0.089107     -0.176168 
 C283  C    -0.008200      0.106701     -0.287219 
 H284  H    -0.079368      0.146257     -0.192837 
 H285  H     0.035925      0.165990     -0.185023 
 C286  C    -0.088157     -0.026950     -0.278523 
 H287  H    -0.077239     -0.100262     -0.172734 
 H288  H    -0.135590     -0.007416     -0.161560 
 H289  H    -0.061350      0.149609     -0.306668 
 H290  H     0.051963      0.140282     -0.302679 
 H291  H     0.117383     -0.000769     -0.308152 
 H292  H     0.064906     -0.102055     -0.297036 
 H293  H    -0.141753      0.015618     -0.288160 
 N294  N    -0.012437      0.011947     -0.308506 
 H295  H    -0.101456     -0.094888     -0.299012 
 C296  C     0.300793      0.255631     -0.455146 
 C297  C     0.305296      0.314631      0.485771 
 C298  C     0.257602      0.295578      0.428671 
 C299  C     0.191203      0.235419      0.439602 
 C300  C     0.179828      0.190743     -0.494056 
 C301  C     0.237419      0.195784     -0.445578 
 O302  O     0.266585      0.334723      0.361559 
 C303  C     0.215712      0.298940      0.307694 
 C304  C     0.233600      0.351543      0.239509 
 C305  C     0.168350      0.338197      0.181934 
 C306  C     0.078381      0.370910      0.201275 
 O307  O     0.235408      0.138746     -0.391344 
 C308  C     0.301165      0.135387     -0.342071 
 C309  C     0.287351      0.205191     -0.283754 
 C310  C     0.238343      0.172934     -0.214378 
 C311  C     0.284434      0.099044     -0.176152 
 H312  H     0.136708      0.225259      0.407461 
 H313  H     0.344740      0.268535     -0.417471 
 H314  H     0.308853      0.068218     -0.318687 
 H315  H     0.365820      0.144926     -0.366206 
 H316  H     0.227477      0.222243      0.298233 
 H317  H     0.148407      0.320386      0.326287 
 H318  H     0.347097      0.233544     -0.269430 
 H319  H     0.252656      0.264118     -0.305294 
 H320  H     0.235457      0.424140      0.256407 
 H321  H     0.297650      0.323572      0.220986 
 H322  H     0.195443      0.362156      0.131118 
 H323  H     0.164784      0.265099      0.169096 
 H324  H     0.226235      0.232130     -0.178752 
 H325  H     0.179452      0.141816     -0.221986 
 H326  H     0.279204      0.032648     -0.201475 
 H327  H     0.349919      0.104131     -0.173320 
 H328  H     0.259524      0.090541     -0.123963 
 H329  H     0.042316      0.364605      0.152445 
 H330  H     0.048596      0.329390      0.241674 
 H331  H     0.081874      0.443368      0.213128 
 C332  C     0.221007     -0.202013     -0.442012 
 C333  C     0.186367     -0.185478      0.492340 
 C334  C     0.216958     -0.234251      0.431098 
 C335  C     0.274026     -0.301199      0.441905 
 C336  C     0.312241     -0.316529     -0.494595 
 C337  C     0.279435     -0.269038     -0.435915 
 O338  O     0.180776     -0.219607      0.368529 
 C339  C     0.224840     -0.244777      0.305688 
 C340  C     0.191980     -0.330764      0.278489 
 C341  C     0.105266     -0.318866      0.247977 
 C342  C     0.107441     -0.289253      0.172604 
 O343  O     0.311337     -0.283184     -0.370211 
 C344  C     0.295962     -0.218182     -0.316405 
 C345  C     0.364291     -0.234534     -0.266694 
 C346  C     0.384500     -0.155720     -0.216232 
 C347  C     0.462967     -0.169545     -0.177288 
 H348  H     0.290807     -0.350745      0.398011 
 H349  H     0.197485     -0.161386     -0.394747 
 H350  H     0.309405     -0.151280     -0.338384 
 H351  H     0.233307     -0.221881     -0.290648 
 H352  H     0.217772     -0.187736      0.270065 
 H353  H     0.295171     -0.247014      0.309130 
 H354  H     0.345354     -0.299918     -0.237783 
 H355  H     0.420545     -0.259709     -0.299133 
 H356  H     0.233426     -0.362893      0.236251 
 H357  H     0.177163     -0.386009      0.317457 
 H358  H     0.076669     -0.385749      0.248110 
 H359  H     0.071355     -0.274091      0.282778 
 H360  H     0.389214     -0.097401     -0.247779 
 H361  H     0.323623     -0.140494     -0.181858 
 H362  H     0.456761     -0.234660     -0.150449 
 H363  H    -0.484249     -0.173044     -0.217183 
 H364  H     0.471388     -0.103240     -0.149307 
 H365  H     0.132833     -0.220675      0.161676 
 H366  H     0.145513     -0.337006      0.141080 
 H367  H     0.045256     -0.282969      0.150300 
 N368  N    -0.487133      0.488909     -0.187432 
 C369  C    -0.496133     -0.419095     -0.218462 
 C370  C    -0.415558      0.446327     -0.218176 
 C371  C     0.442632      0.430855     -0.210441 
 C372  C    -0.420013      0.437352     -0.300021 
 H373  H    -0.360012      0.486795     -0.203948 
 H374  H    -0.416642      0.375059     -0.191744 
 C375  C    -0.492846     -0.422342     -0.301780 
 H376  H     0.440028     -0.388048     -0.202014 
 H377  H    -0.448143     -0.372073     -0.200355 
 C378  C     0.437155      0.436287     -0.293655 
 H379  H     0.445873      0.362194     -0.190243 
 H380  H     0.380547      0.456164     -0.186809 
 H381  H     0.452800     -0.388335     -0.323231 
 H382  H    -0.436147     -0.393277     -0.321630 
 H383  H    -0.364700      0.468505     -0.326903 
 H384  H    -0.422329      0.365764     -0.323485 
 H385  H     0.381872      0.467396     -0.313536 
 N386  N    -0.489259      0.483089     -0.326042 
 H387  H     0.433606      0.367646     -0.314334 
 C388  C    -0.250295     -0.189818     -0.443470 
 C389  C    -0.175133     -0.205114     -0.487027 
 C390  C    -0.166571     -0.284825      0.473531 
 C391  C    -0.235480     -0.340964      0.466592 
 C392  C    -0.314480     -0.320687     -0.499751 
 C393  C    -0.318797     -0.248645     -0.449266 
 O394  O    -0.097241     -0.321471      0.437529 
 C395  C    -0.011976     -0.315923      0.458860 
 C396  C     0.045644     -0.387885      0.419619 
 C397  C     0.019554     -0.484818      0.436696 
 C398  C     0.036464      0.457184      0.368345 
 O399  O    -0.388924     -0.240635     -0.400907 
 C400  C    -0.456962     -0.201562     -0.430209 
 C401  C    -0.487640     -0.120106     -0.385997 
 C402  C    -0.426448     -0.033673     -0.390636 
 C403  C    -0.413860     -0.002466     -0.467789 
 H404  H    -0.229694     -0.394415      0.431526 
 H405  H    -0.254288     -0.126909     -0.406545 
 H406  H    -0.438296     -0.179583     -0.484634 
 H407  H     0.487971     -0.245410     -0.437685 
 H408  H     0.007177     -0.249213      0.443197 
 H409  H    -0.017238     -0.320967     -0.481939 
 H410  H     0.449596     -0.097058     -0.394255 
 H411  H    -0.489199     -0.134189     -0.327738 
 H412  H     0.047840     -0.373575      0.362611 
 H413  H     0.110695     -0.378299      0.432177 
 H414  H     0.056263      0.484175      0.479069 
 H415  H    -0.046500     -0.483113      0.456432 
 H416  H    -0.436157      0.020418     -0.354033 
 H417  H    -0.369276     -0.065837     -0.377549 
 H418  H    -0.376675      0.065034     -0.472036 
 H419  H    -0.391800     -0.057886      0.496129 
 H420  H    -0.476334      0.018016     -0.482227 
 H421  H    -0.005416      0.482242      0.329483 
 H422  H     0.100921      0.454966      0.348590 
 H423  H     0.015516      0.382069      0.371361 
loop_  
_geom_bond_atom_site_label_1  
_geom_bond_atom_site_label_2  
Cu0   Cu1 
Cu0   O4 
Cu0   O7 
Cu0   O10 
Cu0   O13 
Cu0   N82 
Cu1   O2 
Cu1   O5 
Cu1   O8 
Cu1   O11 
Cu1   N276 
O2   C3 
C3   O4 
C3   C29 
O5   C6 
C6   O7 
C6   C85 
O8   C9 
C9   O10 
C9   C180 
O11   C12 
C12   O13 
C12   C124 
Cu14   Cu15 
Cu14   O18 
Cu14   O21 
Cu14   O24 
Cu14   O27 
Cu14   N174 
Cu15   O16 
Cu15   O19 
Cu15   O22 
Cu15   O25 
Cu15   N368 
O16   C17 
C17   O18 
C17   C121 
O19   C20 
C20   O21 
C20   C177 
O22   C23 
C23   O24 
C23   C88 
O25   C26 
C26   O27 
C26   C32 
C28   C29 
C28   C33 
C28   H45 
C29   C30 
C30   C31 
C30   O34 
C31   C32 
C31   H44 
C32   C33 
C33   O39 
O34   C35 
C35   C36 
C35   H48 
C35   H49 
C36   C37 
C36   H52 
C36   H53 
C37   C38 
C37   H54 
C37   H55 
C38   H61 
C38   H62 
C38   H63 
O39   C40 
C40   C41 
C40   H46 
C40   H47 
C41   C42 
C41   H50 
C41   H51 
C42   C43 
C42   H56 
C42   H57 
C43   H58 
C43   H59 
C43   H60 
N64   C65 
N64   C66 
N64   C67 
N64   Cu213 
C65   C71 
C65   H72 
C65   H73 
C66   C68 
C66   H69 
C66   H70 
C67   C74 
C67   H75 
C67   H76 
C68   H79 
C68   H80 
C68   N82 
C71   H77 
C71   H78 
C71   N82 
C74   H81 
C74   N82 
C74   H83 
C84   C85 
C84   C89 
C84   H101 
C85   C86 
C86   C87 
C86   O90 
C87   C88 
C87   H100 
C88   C89 
C89   O95 
O90   C91 
C91   C92 
C91   H104 
C91   H105 
C92   C93 
C92   H108 
C92   H109 
C93   C94 
C93   H110 
C93   H111 
C94   H117 
C94   H118 
C94   H119 
O95   C96 
C96   C97 
C96   H102 
C96   H103 
C97   C98 
C97   H106 
C97   H107 
C98   C99 
C98   H112 
C98   H113 
C99   H114 
C99   H115 
C99   H116 
C120   C121 
C120   C125 
C120   H137 
C121   C122 
C122   C123 
C122   O126 
C123   C124 
C123   H136 
C124   C125 
C125   O131 
O126   C127 
C127   C128 
C127   H140 
C127   H141 
C128   C129 
C128   H144 
C128   H145 
C129   C130 
C129   H146 
C129   H147 
C130   H153 
C130   H154 
C130   H155 
O131   C132 
C132   C133 
C132   H138 
C132   H139 
C133   C134 
C133   H142 
C133   H143 
C134   C135 
C134   H148 
C134   H149 
C135   H150 
C135   H151 
C135   H152 
N156   C157 
N156   C158 
N156   C159 
N156   Cu227 
C157   C163 
C157   H164 
C157   H165 
C158   C160 
C158   H161 
C158   H162 
C159   C166 
C159   H167 
C159   H168 
C160   H171 
C160   H172 
C160   N174 
C163   H169 
C163   H170 
C163   N174 
C166   H173 
C166   N174 
C166   H175 
C176   C177 
C176   C181 
C176   H193 
C177   C178 
C178   C179 
C178   O182 
C179   C180 
C179   H192 
C180   C181 
C181   O187 
O182   C183 
C183   C184 
C183   H196 
C183   H197 
C184   C185 
C184   H200 
C184   H201 
C185   C186 
C185   H202 
C185   H203 
C186   H209 
C186   H210 
C186   H211 
O187   C188 
C188   C189 
C188   H194 
C188   H195 
C189   C190 
C189   H198 
C189   H199 
C190   C191 
C190   H204 
C190   H205 
C191   H206 
C191   H207 
C191   H208 
Cu212   Cu213 
Cu212   O216 
Cu212   O219 
Cu212   O222 
Cu212   O225 
Cu212   N294 
Cu213   O214 
Cu213   O217 
Cu213   O220 
Cu213   O223 
O214   C215 
C215   O216 
C215   C241 
O217   C218 
C218   O219 
C218   C300 
O220   C221 
C221   O222 
C221   C389 
O223   C224 
C224   O225 
C224   C333 
Cu226   Cu227 
Cu226   O230 
Cu226   O233 
Cu226   O236 
Cu226   O239 
Cu226   N386 
Cu227   O228 
Cu227   O231 
Cu227   O234 
Cu227   O237 
O228   C229 
C229   O230 
C229   C336 
O231   C232 
C232   O233 
C232   C392 
O234   C235 
C235   O236 
C235   C297 
O237   C238 
C238   O239 
C238   C244 
C240   C241 
C240   C245 
C240   H257 
C241   C242 
C242   C243 
C242   O246 
C243   C244 
C243   H256 
C244   C245 
C245   O251 
O246   C247 
C247   C248 
C247   H260 
C247   H261 
C248   C249 
C248   H264 
C248   H265 
C249   C250 
C249   H266 
C249   H267 
C250   H273 
C250   H274 
C250   H275 
O251   C252 
C252   C253 
C252   H258 
C252   H259 
C253   C254 
C253   H262 
C253   H263 
C254   C255 
C254   H268 
C254   H269 
C255   H270 
C255   H271 
C255   H272 
N276   C277 
N276   C278 
N276   C279 
C277   C283 
C277   H284 
C277   H285 
C278   C280 
C278   H281 
C278   H282 
C279   C286 
C279   H287 
C279   H288 
C280   H291 
C280   H292 
C280   N294 
C283   H289 
C283   H290 
C283   N294 
C286   H293 
C286   N294 
C286   H295 
C296   C297 
C296   C301 
C296   H313 
C297   C298 
C298   C299 
C298   O302 
C299   C300 
C299   H312 
C300   C301 
C301   O307 
O302   C303 
C303   C304 
C303   H316 
C303   H317 
C304   C305 
C304   H320 
C304   H321 
C305   C306 
C305   H322 
C305   H323 
C306   H329 
C306   H330 
C306   H331 
O307   C308 
C308   C309 
C308   H314 
C308   H315 
C309   C310 
C309   H318 
C309   H319 
C310   C311 
C310   H324 
C310   H325 
C311   H326 
C311   H327 
C311   H328 
C332   C333 
C332   C337 
C332   H349 
C333   C334 
C334   C335 
C334   O338 
C335   C336 
C335   H348 
C336   C337 
C337   O343 
O338   C339 
C339   C340 
C339   H352 
C339   H353 
C340   C341 
C340   H356 
C340   H357 
C341   C342 
C341   H358 
C341   H359 
C342   H365 
C342   H366 
C342   H367 
O343   C344 
C344   C345 
C344   H350 
C344   H351 
C345   C346 
C345   H354 
C345   H355 
C346   C347 
C346   H360 
C346   H361 
C347   H362 
C347   H363 
C347   H364 
N368   C369 
N368   C370 
N368   C371 
C369   C375 
C369   H376 
C369   H377 
C370   C372 
C370   H373 
C370   H374 
C371   C378 
C371   H379 
C371   H380 
C372   H383 
C372   H384 
C372   N386 
C375   H381 
C375   H382 
C375   N386 
C378   H385 
C378   N386 
C378   H387 
C388   C389 
C388   C393 
C388   H405 
C389   C390 
C390   C391 
C390   O394 
C391   C392 
C391   H404 
C392   C393 
C393   O399 
O394   C395 
C395   C396 
C395   H408 
C395   H409 
C396   C397 
C396   H412 
C396   H413 
C397   C398 
C397   H414 
C397   H415 
C398   H421 
C398   H422 
C398   H423 
O399   C400 
C400   C401 
C400   H406 
C400   H407 
C401   C402 
C401   H410 
C401   H411 
C402   C403 
C402   H416 
C402   H417 
C403   H418 
C403   H419 
C403   H420 
  
#END  
