data_
_symmetry_cell_setting           triclinic 
_symmetry_space_group_name_H-M   'P 1' 
_symmetry_Int_Tables_number      1 
loop_ 
_symmetry_equiv_pos_site_id 
_symmetry_equiv_pos_as_xyz 
1 x,y,z 
_cell_length_a             14.252270        
_cell_length_b             16.461574        
_cell_length_c             19.188620        
_cell_angle_alpha          89.118231        
_cell_angle_beta           89.299350        
_cell_angle_gamma          88.743446        
loop_  
_atom_site_label   
_atom_site_type_symbol  
_atom_site_fract_x  
_atom_site_fract_y  
_atom_site_fract_z 
 Cu0  Cu    -0.007895      0.005263      0.067166 
 Cu1  Cu    -0.012726      0.009614     -0.068563 
 O2  O    -0.107857      0.095765     -0.055264 
 C3  C    -0.142968      0.111097      0.004485 
 O4  O    -0.124413      0.073054      0.061130 
 O5  O     0.086115      0.095425     -0.060684 
 C6  C     0.102615      0.128900     -0.002695 
 O7  O     0.067234      0.106296      0.055651 
 O8  O    -0.113098     -0.074448     -0.053736 
 C9  C    -0.123507     -0.112800      0.004061 
 O10  O    -0.083151     -0.095451      0.060685 
 O11  O     0.083206     -0.077745     -0.065276 
 C12  C     0.123676     -0.095854     -0.008233 
 O13  O     0.107677     -0.061419      0.049962 
 Cu14  Cu     0.491991     -0.492912      0.078812 
 Cu15  Cu     0.490713     -0.492154     -0.056841 
 O16  O     0.382571     -0.416274     -0.043486 
 C17  C     0.371137     -0.377266      0.012979 
 O18  O     0.406857     -0.397262      0.071413 
 O19  O    -0.425305     -0.397155     -0.050461 
 C20  C    -0.386110     -0.379524      0.006540 
 O21  O    -0.398932     -0.416922      0.064558 
 O22  O     0.404507      0.414116     -0.044130 
 C23  C     0.366258      0.395439      0.014284 
 O24  O     0.383885      0.429695      0.071735 
 O25  O    -0.399801      0.432381     -0.047865 
 C26  C    -0.384644      0.395376      0.009870 
 O27  O    -0.422015      0.412783      0.068504 
 C28  C    -0.187218      0.247794     -0.037473 
 C29  C    -0.208952      0.182487      0.006965 
 C30  C    -0.287226      0.186003      0.052201 
 C31  C    -0.341287      0.257831      0.054721 
 C32  C    -0.320024      0.322829      0.009617 
 C33  C    -0.241744      0.319242     -0.035213 
 O34  O    -0.313637      0.123885      0.096018 
 C35  C    -0.337903      0.048305      0.064633 
 C36  C    -0.434598      0.054685      0.031326 
 C37  C     0.483818      0.070464      0.082895 
 C38  C     0.387601      0.074159      0.047772 
 O39  O    -0.219834      0.383090     -0.078339 
 C40  C    -0.128452      0.416507     -0.069810 
 C41  C    -0.089580      0.439871     -0.141461 
 C42  C     0.007890      0.478241     -0.140115 
 C43  C     0.086884      0.420466     -0.114935 
 H44  H    -0.401928      0.260530      0.089981 
 H45  H    -0.127040      0.244545     -0.073196 
 H46  H    -0.136808      0.470295     -0.036620 
 H47  H    -0.081086      0.373150     -0.042612 
 H48  H    -0.284918      0.029781      0.025469 
 H49  H    -0.336499      0.001247      0.106053 
 H50  H    -0.086306      0.385774     -0.174593 
 H51  H    -0.139298      0.482873     -0.166693 
 H52  H    -0.434809      0.103148     -0.008934 
 H53  H    -0.447226     -0.002132      0.003717 
 H54  H     0.484167      0.022383      0.123408 
 H55  H     0.494914      0.127928      0.109958 
 H56  H     0.025431     -0.499235     -0.192898 
 H57  H     0.004689     -0.467833     -0.106860 
 H58  H     0.155003      0.450589     -0.116567 
 H59  H     0.075135      0.399522     -0.060932 
 H60  H     0.093213      0.366363     -0.147663 
 H61  H     0.330802      0.084857      0.085995 
 H62  H     0.383579      0.123627      0.008684 
 H63  H     0.372872      0.017159      0.021279 
 N64  N    -0.006142      0.006047      0.317968 
 C65  C    -0.103426      0.010230      0.291839 
 C66  C     0.044481      0.076199      0.288172 
 C67  C     0.039647     -0.069219      0.291469 
 C68  C     0.039742      0.076912      0.206773 
 H69  H     0.013926      0.132960      0.309288 
 H70  H     0.118001      0.072385      0.305501 
 C71  C    -0.104635      0.004307      0.210681 
 H72  H    -0.144615     -0.038454      0.316438 
 H73  H    -0.136244      0.068132      0.308278 
 C74  C     0.042446     -0.068520      0.209867 
 H75  H     0.111254     -0.075055      0.312347 
 H76  H     0.000747     -0.121906      0.311774 
 H77  H    -0.138927     -0.051758      0.194695 
 H78  H    -0.145611      0.055426      0.187911 
 H79  H     0.001331      0.131599      0.187697 
 H80  H     0.111005      0.078875      0.183837 
 H81  H     0.011081     -0.123805      0.189312 
 N82  N    -0.007961      0.004040      0.181690 
 H83  H     0.115580     -0.067705      0.190503 
 C84  C     0.277686      0.294790     -0.052778 
 C85  C     0.296162      0.327413      0.012659 
 C86  C     0.249901      0.296486      0.072374 
 C87  C     0.185308      0.233715      0.064768 
 C88  C     0.168161      0.200216     -0.000559 
 C89  C     0.213888      0.231571     -0.060187 
 O90  O     0.269678      0.328577      0.136168 
 C91  C     0.226281      0.297668      0.199090 
 C92  C     0.271451      0.216515      0.221792 
 C93  C     0.373378      0.221841      0.246478 
 C94  C     0.382114      0.254397      0.320565 
 O95  O     0.193039      0.200336     -0.123951 
 C96  C     0.252815      0.214432     -0.183647 
 C97  C     0.343052      0.163317     -0.177777 
 C98  C     0.326343      0.071318     -0.175502 
 C99  C     0.416789      0.019733     -0.170028 
 H100  H     0.148720      0.209860      0.110680 
 H101  H     0.313286      0.319078     -0.098916 
 H102  H     0.213558      0.196866     -0.229943 
 H103  H     0.266912      0.279544     -0.190381 
 H104  H     0.235166      0.343506      0.239528 
 H105  H     0.150073      0.292819      0.191812 
 H106  H     0.389362      0.177972     -0.222354 
 H107  H     0.381510      0.180193     -0.130872 
 H108  H     0.228712      0.189685      0.264101 
 H109  H     0.269690      0.173159      0.178769 
 H110  H     0.406346      0.160886      0.244506 
 H111  H     0.413591      0.259654      0.209419 
 H112  H     0.279830      0.056629     -0.130955 
 H113  H     0.288571      0.054242     -0.222602 
 H114  H     0.401023     -0.045338     -0.168539 
 H115  H     0.463774      0.030721     -0.214874 
 H116  H     0.455154      0.033304     -0.122388 
 H117  H     0.351992      0.316045      0.324971 
 H118  H     0.345362      0.215617      0.358745 
 H119  H     0.455825      0.256291      0.336420 
 C120  C     0.244533     -0.176911      0.054070 
 C121  C     0.193609     -0.165279     -0.007322 
 C122  C     0.203834     -0.219723     -0.062829 
 C123  C     0.264487     -0.287207     -0.054597 
 C124  C     0.312039     -0.300889      0.008056 
 C125  C     0.303217     -0.245593      0.062997 
 O126  O     0.152753     -0.206635     -0.122430 
 C127  C     0.155506     -0.264862     -0.177708 
 C128  C     0.239211     -0.250962     -0.226629 
 C129  C     0.231433     -0.170959     -0.268709 
 C130  C     0.315091     -0.155791     -0.317787 
 O131  O     0.351535     -0.260641      0.123553 
 C132  C     0.351252     -0.201572      0.178017 
 C133  C     0.262876     -0.206289      0.223753 
 C134  C     0.256041     -0.284876      0.267537 
 C135  C     0.167575     -0.287464      0.313788 
 H136  H     0.273490     -0.330462     -0.096781 
 H137  H     0.236284     -0.133104      0.095923 
 H138  H     0.413992     -0.214539      0.209565 
 H139  H     0.360075     -0.140283      0.155314 
 H140  H     0.155149     -0.327285     -0.156212 
 H141  H     0.089603     -0.256742     -0.206580 
 H142  H     0.260543     -0.154063      0.258965 
 H143  H     0.199719     -0.200198      0.191483 
 H144  H     0.304881     -0.251793     -0.196925 
 H145  H     0.245461     -0.301828     -0.263178 
 H146  H     0.166789     -0.170893     -0.299521 
 H147  H     0.224103     -0.120060     -0.232414 
 H148  H     0.257158     -0.337264      0.232565 
 H149  H     0.318458     -0.291780      0.300535 
 H150  H     0.164872     -0.236858      0.350545 
 H151  H     0.103509     -0.283595      0.282502 
 H152  H     0.165484     -0.344181      0.344731 
 H153  H     0.380013     -0.148592     -0.288553 
 H154  H     0.326452     -0.206168     -0.354104 
 H155  H     0.303794     -0.100074     -0.349187 
 N156  N     0.491123     -0.485785      0.327924 
 C157  C    -0.451217      0.444876      0.302045 
 C158  C     0.394612     -0.493083      0.301469 
 C159  C    -0.469422     -0.410189      0.298293 
 C160  C     0.395189     -0.496555      0.220142 
 H161  H     0.362806      0.451997      0.324080 
 H162  H     0.351577     -0.441046      0.319853 
 C163  C    -0.450000      0.443716      0.220621 
 H164  H    -0.379257      0.449386      0.321972 
 H165  H    -0.479768      0.387960      0.323558 
 C166  C    -0.470378     -0.411354      0.216849 
 H167  H     0.489951     -0.357506      0.318235 
 H168  H    -0.397074     -0.404326      0.316940 
 H169  H    -0.377643      0.449056      0.200221 
 H170  H    -0.476521      0.385650      0.201776 
 H171  H     0.367002      0.445313      0.203088 
 H172  H     0.349784     -0.448117      0.197631 
 H173  H    -0.398774     -0.403962      0.195611 
 N174  N     0.491647     -0.488591      0.191878 
 H175  H     0.486652     -0.360304      0.195941 
 C176  C    -0.247017     -0.309935      0.054457 
 C177  C    -0.319808     -0.309128      0.005970 
 C178  C    -0.329294     -0.244032     -0.042052 
 C179  C    -0.263033     -0.181825     -0.043025 
 C180  C    -0.189466     -0.183291      0.004841 
 C181  C    -0.180274     -0.248548      0.052689 
 O182  O    -0.403663     -0.244386     -0.086679 
 C183  C    -0.441075     -0.169057     -0.114271 
 C184  C    -0.405281     -0.154259     -0.188511 
 C185  C    -0.435640     -0.218926     -0.240015 
 C186  C    -0.411779     -0.197433     -0.316130 
 O187  O    -0.109628     -0.254121      0.100141 
 C188  C    -0.019175     -0.281070      0.074283 
 C189  C    -0.021091     -0.371604      0.058083 
 C190  C     0.075355     -0.410754      0.041225 
 C191  C     0.142567     -0.415319      0.103126 
 H192  H    -0.269498     -0.131788     -0.080780 
 H193  H    -0.238897     -0.359413      0.092592 
 H194  H     0.000681     -0.245116      0.027684 
 H195  H     0.032178     -0.268519      0.114908 
 H196  H     0.481933     -0.173969     -0.113449 
 H197  H    -0.424596     -0.118317     -0.080053 
 H198  H    -0.052757     -0.404875      0.102355 
 H199  H    -0.067690     -0.380493      0.013566 
 H200  H    -0.431011     -0.094179     -0.206762 
 H201  H    -0.328135     -0.151432     -0.189326 
 H202  H    -0.402045     -0.277615     -0.225890 
 H203  H     0.488341     -0.227858     -0.234516 
 H204  H     0.064847     -0.472723      0.022431 
 H205  H     0.108268     -0.377378     -0.002457 
 H206  H     0.160019     -0.354631      0.121376 
 H207  H     0.112123     -0.449259      0.147357 
 H208  H     0.208913     -0.446409      0.088640 
 H209  H    -0.433611     -0.245452     -0.351317 
 H210  H    -0.447245     -0.140626     -0.332937 
 H211  H    -0.335957     -0.189629     -0.323778 
 Cu212  Cu    -0.009276      0.006721     -0.432502 
 Cu213  Cu    -0.004827      0.012134      0.431633 
 O214  O    -0.120457      0.080450      0.439764 
 C215  C    -0.143333      0.111045      0.498210 
 O216  O    -0.110702      0.088459     -0.442958 
 O217  O     0.069800      0.113406      0.443229 
 C218  C     0.101817      0.133423     -0.497885 
 O219  O     0.084125      0.096868     -0.440234 
 O220  O    -0.082749     -0.088480      0.438184 
 C221  C    -0.117316     -0.113986      0.495878 
 O222  O    -0.100911     -0.083359     -0.444877 
 O223  O     0.111455     -0.055690      0.443961 
 C224  C     0.128981     -0.091847     -0.498313 
 O225  O     0.091820     -0.075242     -0.439393 
 Cu226  Cu     0.491737     -0.490756     -0.422130 
 Cu227  Cu     0.492502     -0.489203      0.441906 
 O228  O     0.410701     -0.392662      0.447622 
 C229  C     0.372988     -0.374147     -0.494098 
 O230  O     0.387950     -0.409683     -0.435691 
 O231  O    -0.397577     -0.415530      0.450704 
 C232  C    -0.376133     -0.383969     -0.491425 
 O233  O    -0.412904     -0.402602     -0.432569 
 O234  O     0.381714      0.436832      0.452469 
 C235  C     0.363912      0.400873     -0.489623 
 O236  O     0.400533      0.418374     -0.431612 
 O237  O    -0.424312      0.414957      0.453835 
 C238  C    -0.390145      0.392839     -0.487719 
 O239  O    -0.405821      0.427603     -0.429837 
 C240  C    -0.222101      0.220754     -0.435580 
 C241  C    -0.210651      0.182221     -0.499942 
 C242  C    -0.259070      0.210458      0.440745 
 C243  C    -0.318527      0.278797      0.447150 
 C244  C    -0.328327      0.318176     -0.488921 
 C245  C    -0.281151      0.289343     -0.429415 
 O246  O    -0.246227      0.171053      0.378612 
 C247  C    -0.305312      0.189552      0.319864 
 C248  C    -0.270295      0.261925      0.276814 
 C249  C    -0.174312      0.247039      0.241357 
 C250  C    -0.140756      0.320095      0.197978 
 O251  O    -0.293375      0.331166     -0.368490 
 C252  C    -0.256104      0.302089     -0.303311 
 C253  C    -0.315449      0.233343     -0.273898 
 C254  C    -0.294490      0.212294     -0.197360 
 C255  C    -0.349886      0.139957     -0.168875 
 H256  H    -0.356652      0.301961      0.401841 
 H257  H    -0.183782      0.198504     -0.390105 
 H258  H    -0.181659      0.283876     -0.309312 
 H259  H    -0.258544      0.353992     -0.267738 
 H260  H    -0.304912      0.134930      0.287435 
 H261  H    -0.378388      0.199236      0.337724 
 H262  H    -0.390367      0.250311     -0.278267 
 H263  H    -0.304585      0.178575     -0.305436 
 H264  H    -0.322295      0.277030      0.236338 
 H265  H    -0.266379      0.316125      0.309440 
 H266  H    -0.121858      0.231231      0.281248 
 H267  H    -0.178371      0.194032      0.207322 
 H268  H    -0.218861      0.199625     -0.191469 
 H269  H    -0.310720      0.265819     -0.165270 
 H270  H    -0.335121      0.084816     -0.199033 
 H271  H    -0.331574      0.126353     -0.114385 
 H272  H    -0.425862      0.152657     -0.170450 
 H273  H    -0.133273      0.374005      0.230385 
 H274  H    -0.072289      0.306897      0.173160 
 H275  H    -0.190428      0.335960      0.156249 
 N276  N    -0.013341      0.007708     -0.182166 
 C277  C    -0.040947     -0.072235     -0.208519 
 C278  C    -0.079906      0.070013     -0.209749 
 C279  C     0.081057      0.025745     -0.210253 
 C280  C    -0.078970      0.070633     -0.291274 
 H281  H    -0.150741      0.057194     -0.189183 
 H282  H    -0.060837      0.129960     -0.189986 
 C283  C    -0.041250     -0.071856     -0.290018 
 H284  H     0.008101     -0.119339     -0.188285 
 H285  H    -0.111060     -0.086822     -0.187521 
 C286  C     0.081890      0.025405     -0.291656 
 H287  H     0.101728      0.085605     -0.191560 
 H288  H     0.132112     -0.019088     -0.189068 
 H289  H     0.006378     -0.119694     -0.310570 
 H290  H    -0.111963     -0.084923     -0.309067 
 H291  H    -0.149687      0.059141     -0.311149 
 H292  H    -0.058498      0.130645     -0.312004 
 H293  H     0.132701     -0.020266     -0.311620 
 N294  N    -0.012463      0.008052     -0.318388 
 H295  H     0.104290      0.084811     -0.312400 
 C296  C     0.230387      0.207861     -0.440909 
 C297  C     0.165406      0.205548     -0.495062 
 C298  C     0.163660      0.268217      0.454112 
 C299  C     0.229859      0.330074      0.455613 
 C300  C     0.296041      0.331557     -0.490912 
 C301  C     0.297468      0.268920     -0.440065 
 O302  O     0.100296      0.270316      0.401216 
 C303  C     0.005974      0.293931      0.420827 
 C304  C    -0.010564      0.382604      0.399115 
 C305  C    -0.107191      0.418216      0.420574 
 C306  C    -0.119489      0.430818      0.499252 
 O307  O     0.362541      0.265413     -0.388402 
 C308  C     0.452163      0.230907     -0.408630 
 C309  C     0.454705      0.140402     -0.389941 
 C310  C    -0.454748      0.095067     -0.412550 
 C311  C    -0.444599      0.084758     -0.491595 
 H312  H     0.226976      0.377456      0.415254 
 H313  H     0.233167      0.160468     -0.400542 
 H314  H     0.464510      0.241299     -0.464842 
 H315  H    -0.493193      0.263448     -0.381000 
 H316  H    -0.042553      0.253702      0.394381 
 H317  H    -0.005073      0.284890      0.477329 
 H318  H     0.445663      0.133185     -0.333135 
 H319  H     0.394523      0.110491     -0.413280 
 H320  H     0.044495      0.420232      0.421064 
 H321  H    -0.002554      0.387883      0.342050 
 H322  H    -0.118324      0.476999      0.393457 
 H323  H    -0.162507      0.378537      0.401988 
 H324  H    -0.393623      0.127109     -0.393129 
 H325  H    -0.452729      0.034625     -0.387110 
 H326  H    -0.379015      0.051736      0.495211 
 H327  H     0.497028      0.050253      0.487721 
 H328  H    -0.443358      0.143635      0.480727 
 H329  H    -0.189159      0.457348     -0.488580 
 H330  H    -0.112657      0.373292     -0.471286 
 H331  H    -0.066912      0.472302     -0.481150 
 C332  C     0.334432     -0.235480      0.463067 
 C333  C     0.308092     -0.301897     -0.495423 
 C334  C     0.224032     -0.301569     -0.456930 
 C335  C     0.167389     -0.231027     -0.457508 
 C336  C     0.193720     -0.164298     -0.498955 
 C337  C     0.276586     -0.165547      0.460708 
 O338  O     0.201607     -0.371509     -0.421586 
 C339  C     0.107370     -0.382734     -0.397124 
 C340  C     0.094455     -0.473252     -0.383081 
 C341  C     0.165272      0.488231     -0.331872 
 C342  C     0.146889      0.398454     -0.315579 
 O343  O     0.298546     -0.098098      0.421346 
 C344  C     0.385947     -0.098107      0.383364 
 C345  C     0.391901     -0.020056      0.340083 
 C346  C     0.478827     -0.017136      0.291724 
 C347  C    -0.427278     -0.016352      0.329995 
 H348  H     0.102531     -0.228425     -0.426671 
 H349  H     0.400526     -0.238623      0.433673 
 H350  H     0.443868     -0.102948      0.420850 
 H351  H     0.389999     -0.151155      0.349075 
 H352  H     0.095930     -0.347280     -0.349417 
 H353  H     0.057167     -0.360451     -0.436676 
 H354  H     0.328282     -0.013116      0.308271 
 H355  H     0.391238      0.032608      0.374895 
 H356  H     0.022700     -0.483348     -0.363431 
 H357  H     0.100339      0.494451     -0.432909 
 H358  H     0.236520      0.493496     -0.354205 
 H359  H     0.164390     -0.477267     -0.283161 
 H360  H     0.478462     -0.069197      0.256394 
 H361  H     0.473214      0.037334      0.257962 
 H362  H    -0.368094     -0.012862      0.292895 
 H363  H    -0.423579      0.036379      0.364196 
 H364  H    -0.416154     -0.071287      0.362378 
 H365  H     0.199704      0.372771     -0.279794 
 H366  H     0.077441      0.390344     -0.291265 
 H367  H     0.149918      0.362228     -0.363250 
 N368  N     0.493742     -0.491859     -0.171137 
 C369  C     0.461121      0.429967     -0.198005 
 C370  C     0.430554     -0.426394     -0.198174 
 C371  C    -0.410787     -0.478330     -0.199496 
 C372  C     0.429519     -0.425834     -0.279739 
 H373  H     0.359178     -0.435501     -0.177040 
 H374  H     0.453872     -0.367621     -0.178551 
 C375  C     0.462575      0.430649     -0.279527 
 H376  H    -0.494113      0.380011     -0.177083 
 H377  H     0.389357      0.419662     -0.178173 
 C378  C    -0.411479     -0.475242     -0.280979 
 H379  H    -0.384162     -0.421269     -0.178778 
 H380  H    -0.363442      0.472445     -0.180583 
 H381  H    -0.489692      0.382532     -0.299463 
 H382  H     0.392185      0.418116     -0.299441 
 H383  H     0.358058     -0.435909     -0.298653 
 H384  H     0.450828     -0.366329     -0.301062 
 H385  H    -0.361761      0.479356     -0.302767 
 N386  N     0.493441     -0.489861     -0.307564 
 H387  H    -0.388851     -0.415289     -0.300183 
 C388  C    -0.194045     -0.228294     -0.440537 
 C389  C    -0.180935     -0.186528      0.495910 
 C390  C    -0.227356     -0.212300      0.435870 
 C391  C    -0.289431     -0.277627      0.441542 
 C392  C    -0.303700     -0.318196     -0.494621 
 C393  C    -0.252542     -0.295593     -0.436178 
 O394  O    -0.211646     -0.170810      0.374276 
 C395  C    -0.253063     -0.194092      0.309655 
 C396  C    -0.189033     -0.251940      0.268373 
 C397  C    -0.162477     -0.332874      0.304967 
 C398  C    -0.103641     -0.389863      0.258473 
 O399  O    -0.261202     -0.336310     -0.373999 
 C400  C    -0.184481     -0.390462     -0.356227 
 C401  C    -0.125938     -0.355463     -0.298207 
 C402  C    -0.181663     -0.337325     -0.230938 
 C403  C    -0.121156     -0.304951     -0.172421 
 H404  H    -0.328700     -0.296478      0.396339 
 H405  H    -0.159244     -0.209428     -0.393348 
 H406  H    -0.214418     -0.448955     -0.339891 
 H407  H    -0.140673     -0.402218     -0.402904 
 H408  H    -0.323302     -0.219089      0.317952 
 H409  H    -0.263841     -0.137509      0.279198 
 H410  H    -0.068429     -0.398828     -0.285781 
 H411  H    -0.092133     -0.299595     -0.316949 
 H412  H    -0.223601     -0.265077      0.218879 
 H413  H    -0.124179     -0.220256      0.253921 
 H414  H    -0.123140     -0.320654      0.352604 
 H415  H    -0.226491     -0.364117      0.321912 
 H416  H    -0.238213     -0.292715     -0.242445 
 H417  H    -0.216464     -0.392838     -0.212535 
 H418  H    -0.089935     -0.246703     -0.187281 
 H419  H    -0.163279     -0.295059     -0.124846 
 H420  H    -0.063798     -0.347754     -0.158960 
 H421  H    -0.142498     -0.406278      0.211797 
 H422  H    -0.038196     -0.361362      0.241089 
 H423  H    -0.084527     -0.446522      0.286349 
loop_  
_geom_bond_atom_site_label_1  
_geom_bond_atom_site_label_2  
Cu0   Cu1 
Cu0   O4 
Cu0   O7 
Cu0   O10 
Cu0   O13 
Cu0   N82 
Cu1   O2 
Cu1   O5 
Cu1   O8 
Cu1   O11 
Cu1   N276 
O2   C3 
C3   O4 
C3   C29 
O5   C6 
C6   O7 
C6   C88 
O8   C9 
C9   O10 
C9   C180 
O11   C12 
C12   O13 
C12   C121 
Cu14   Cu15 
Cu14   O18 
Cu14   O21 
Cu14   O24 
Cu14   O27 
Cu14   N174 
Cu15   O16 
Cu15   O19 
Cu15   O22 
Cu15   O25 
Cu15   N368 
O16   C17 
C17   O18 
C17   C124 
O19   C20 
C20   O21 
C20   C177 
O22   C23 
C23   O24 
C23   C85 
O25   C26 
C26   O27 
C26   C32 
C28   C29 
C28   C33 
C28   H45 
C29   C30 
C30   C31 
C30   O34 
C31   C32 
C31   H44 
C32   C33 
C33   O39 
O34   C35 
C35   C36 
C35   H48 
C35   H49 
C36   C37 
C36   H52 
C36   H53 
C37   C38 
C37   H54 
C37   H55 
C38   H61 
C38   H62 
C38   H63 
O39   C40 
C40   C41 
C40   H46 
C40   H47 
C41   C42 
C41   H50 
C41   H51 
C42   C43 
C42   H56 
C42   H57 
C43   H58 
C43   H59 
C43   H60 
N64   C65 
N64   C66 
N64   C67 
N64   Cu213 
C65   C71 
C65   H72 
C65   H73 
C66   C68 
C66   H69 
C66   H70 
C67   C74 
C67   H75 
C67   H76 
C68   H79 
C68   H80 
C68   N82 
C71   H77 
C71   H78 
C71   N82 
C74   H81 
C74   N82 
C74   H83 
C84   C85 
C84   C89 
C84   H101 
C85   C86 
C86   C87 
C86   O90 
C87   C88 
C87   H100 
C88   C89 
C89   O95 
O90   C91 
C91   C92 
C91   H104 
C91   H105 
C92   C93 
C92   H108 
C92   H109 
C93   C94 
C93   H110 
C93   H111 
C94   H117 
C94   H118 
C94   H119 
O95   C96 
C96   C97 
C96   H102 
C96   H103 
C97   C98 
C97   H106 
C97   H107 
C98   C99 
C98   H112 
C98   H113 
C99   H114 
C99   H115 
C99   H116 
C120   C121 
C120   C125 
C120   H137 
C121   C122 
C122   C123 
C122   O126 
C123   C124 
C123   H136 
C124   C125 
C125   O131 
O126   C127 
C127   C128 
C127   H140 
C127   H141 
C128   C129 
C128   H144 
C128   H145 
C129   C130 
C129   H146 
C129   H147 
C130   H153 
C130   H154 
C130   H155 
O131   C132 
C132   C133 
C132   H138 
C132   H139 
C133   C134 
C133   H142 
C133   H143 
C134   C135 
C134   H148 
C134   H149 
C135   H150 
C135   H151 
C135   H152 
N156   C157 
N156   C158 
N156   C159 
N156   Cu227 
C157   C163 
C157   H164 
C157   H165 
C158   C160 
C158   H161 
C158   H162 
C159   C166 
C159   H167 
C159   H168 
C160   H171 
C160   H172 
C160   N174 
C163   H169 
C163   H170 
C163   N174 
C166   H173 
C166   N174 
C166   H175 
C176   C177 
C176   C181 
C176   H193 
C177   C178 
C178   C179 
C178   O182 
C179   C180 
C179   H192 
C180   C181 
C181   O187 
O182   C183 
C183   C184 
C183   H196 
C183   H197 
C184   C185 
C184   H200 
C184   H201 
C185   C186 
C185   H202 
C185   H203 
C186   H209 
C186   H210 
C186   H211 
O187   C188 
C188   C189 
C188   H194 
C188   H195 
C189   C190 
C189   H198 
C189   H199 
C190   C191 
C190   H204 
C190   H205 
C191   H206 
C191   H207 
C191   H208 
Cu212   Cu213 
Cu212   O216 
Cu212   O219 
Cu212   O222 
Cu212   O225 
Cu212   N294 
Cu213   O214 
Cu213   O217 
Cu213   O220 
Cu213   O223 
O214   C215 
C215   O216 
C215   C241 
O217   C218 
C218   O219 
C218   C297 
O220   C221 
C221   O222 
C221   C389 
O223   C224 
C224   O225 
C224   C336 
Cu226   Cu227 
Cu226   O230 
Cu226   O233 
Cu226   O236 
Cu226   O239 
Cu226   N386 
Cu227   O228 
Cu227   O231 
Cu227   O234 
Cu227   O237 
O228   C229 
C229   O230 
C229   C333 
O231   C232 
C232   O233 
C232   C392 
O234   C235 
C235   O236 
C235   C300 
O237   C238 
C238   O239 
C238   C244 
C240   C241 
C240   C245 
C240   H257 
C241   C242 
C242   C243 
C242   O246 
C243   C244 
C243   H256 
C244   C245 
C245   O251 
O246   C247 
C247   C248 
C247   H260 
C247   H261 
C248   C249 
C248   H264 
C248   H265 
C249   C250 
C249   H266 
C249   H267 
C250   H273 
C250   H274 
C250   H275 
O251   C252 
C252   C253 
C252   H258 
C252   H259 
C253   C254 
C253   H262 
C253   H263 
C254   C255 
C254   H268 
C254   H269 
C255   H270 
C255   H271 
C255   H272 
N276   C277 
N276   C278 
N276   C279 
C277   C283 
C277   H284 
C277   H285 
C278   C280 
C278   H281 
C278   H282 
C279   C286 
C279   H287 
C279   H288 
C280   H291 
C280   H292 
C280   N294 
C283   H289 
C283   H290 
C283   N294 
C286   H293 
C286   N294 
C286   H295 
C296   C297 
C296   C301 
C296   H313 
C297   C298 
C298   C299 
C298   O302 
C299   C300 
C299   H312 
C300   C301 
C301   O307 
O302   C303 
C303   C304 
C303   H316 
C303   H317 
C304   C305 
C304   H320 
C304   H321 
C305   C306 
C305   H322 
C305   H323 
C306   H329 
C306   H330 
C306   H331 
O307   C308 
C308   C309 
C308   H314 
C308   H315 
C309   C310 
C309   H318 
C309   H319 
C310   C311 
C310   H324 
C310   H325 
C311   H326 
C311   H327 
C311   H328 
C332   C333 
C332   C337 
C332   H349 
C333   C334 
C334   C335 
C334   O338 
C335   C336 
C335   H348 
C336   C337 
C337   O343 
O338   C339 
C339   C340 
C339   H352 
C339   H353 
C340   C341 
C340   H356 
C340   H357 
C341   C342 
C341   H358 
C341   H359 
C342   H365 
C342   H366 
C342   H367 
O343   C344 
C344   C345 
C344   H350 
C344   H351 
C345   C346 
C345   H354 
C345   H355 
C346   C347 
C346   H360 
C346   H361 
C347   H362 
C347   H363 
C347   H364 
N368   C369 
N368   C370 
N368   C371 
C369   C375 
C369   H376 
C369   H377 
C370   C372 
C370   H373 
C370   H374 
C371   C378 
C371   H379 
C371   H380 
C372   H383 
C372   H384 
C372   N386 
C375   H381 
C375   H382 
C375   N386 
C378   H385 
C378   N386 
C378   H387 
C388   C389 
C388   C393 
C388   H405 
C389   C390 
C390   C391 
C390   O394 
C391   C392 
C391   H404 
C392   C393 
C393   O399 
O394   C395 
C395   C396 
C395   H408 
C395   H409 
C396   C397 
C396   H412 
C396   H413 
C397   C398 
C397   H414 
C397   H415 
C398   H421 
C398   H422 
C398   H423 
O399   C400 
C400   C401 
C400   H406 
C400   H407 
C401   C402 
C401   H410 
C401   H411 
C402   C403 
C402   H416 
C402   H417 
C403   H418 
C403   H419 
C403   H420 
  
#END  
