data_
_symmetry_cell_setting           triclinic 
_symmetry_space_group_name_H-M   'P 1' 
_symmetry_Int_Tables_number      1 
loop_ 
_symmetry_equiv_pos_site_id 
_symmetry_equiv_pos_as_xyz 
1 x,y,z 
_cell_length_a             10.582368        
_cell_length_b             18.541798        
_cell_length_c             19.151720        
_cell_angle_alpha          90.048392        
_cell_angle_beta           86.293047        
_cell_angle_gamma          90.151523        
loop_  
_atom_site_label   
_atom_site_type_symbol  
_atom_site_fract_x  
_atom_site_fract_y  
_atom_site_fract_z 
 Cu0  Cu    -0.013414      0.002120      0.062615 
 Cu1  Cu    -0.008868      0.001827     -0.073662 
 O2  O    -0.128875      0.083497     -0.059538 
 C3  C    -0.148485      0.114772     -0.000712 
 O4  O    -0.114237      0.091554      0.057679 
 O5  O     0.128411      0.073456     -0.069183 
 C6  C     0.161127      0.095760     -0.010153 
 O7  O     0.139724      0.063941      0.048298 
 O8  O    -0.151320     -0.067027     -0.062558 
 C9  C    -0.191708     -0.090397     -0.002699 
 O10  O    -0.166804     -0.061622      0.055462 
 O11  O     0.112073     -0.080015     -0.068733 
 C12  C     0.127753     -0.110422     -0.010283 
 O13  O     0.093150     -0.084496      0.049565 
 Cu14  Cu     0.475949     -0.498700      0.065431 
 Cu15  Cu     0.485680      0.499264     -0.071009 
 O16  O     0.349698     -0.428886     -0.061602 
 C17  C     0.313920     -0.403645     -0.001728 
 O18  O     0.325972     -0.435615      0.056361 
 O19  O    -0.392287     -0.417988     -0.063094 
 C20  C    -0.385494     -0.383482     -0.005810 
 O21  O    -0.418176     -0.409293      0.054438 
 O22  O     0.360251      0.419389     -0.057961 
 C23  C     0.343131      0.387378      0.000732 
 O24  O     0.373636      0.411519      0.059617 
 O25  O    -0.384539      0.423719     -0.063678 
 C26  C    -0.356235      0.402025     -0.003664 
 O27  O    -0.375095      0.437017      0.053195 
 C28  C    -0.346778      0.275861     -0.048540 
 C29  C    -0.307698      0.326331      0.000219 
 C30  C    -0.222252      0.307471      0.050016 
 C31  C    -0.173542      0.237286      0.050289 
 C32  C    -0.209649      0.187513      0.000215 
 C33  C    -0.298188      0.205538     -0.048353 
 O34  O    -0.189643      0.359436      0.096205 
 C35  C    -0.064602      0.358887      0.120256 
 C36  C    -0.042520      0.430137      0.157108 
 C37  C    -0.053751      0.496908      0.110405 
 C38  C    -0.039548     -0.432174      0.150244 
 O39  O    -0.330096      0.153065     -0.094511 
 C40  C    -0.452571      0.152918     -0.122421 
 C41  C    -0.459980      0.087502     -0.170417 
 C42  C    -0.447393      0.014274     -0.133890 
 C43  C     0.438590     -0.004784     -0.083835 
 H44  H    -0.104895      0.222385      0.087897 
 H45  H    -0.414285      0.291259     -0.086587 
 H46  H     0.474089      0.150646     -0.079128 
 H47  H    -0.466742      0.202899     -0.151694 
 H48  H    -0.057128      0.313538      0.156703 
 H49  H     0.005168      0.351146      0.075625 
 H50  H     0.449484      0.088203     -0.195673 
 H51  H    -0.385376      0.092171     -0.213022 
 H52  H    -0.110323      0.434820      0.202956 
 H53  H     0.052493      0.429730      0.177426 
 H54  H     0.019113      0.494327      0.066671 
 H55  H    -0.145673      0.496492      0.086470 
 H56  H    -0.434507     -0.028201     -0.173871 
 H57  H    -0.360725      0.013837     -0.104945 
 H58  H     0.424548      0.035241     -0.041878 
 H59  H     0.350472     -0.007655     -0.111060 
 H60  H     0.451478     -0.057235     -0.058777 
 H61  H    -0.046559     -0.385660      0.115139 
 H62  H    -0.113182     -0.426390      0.193001 
 H63  H     0.052866     -0.429565      0.173089 
 N64  N     0.015709      0.001244      0.312202 
 C65  C    -0.026111     -0.068840      0.284903 
 C66  C    -0.073469      0.057183      0.290685 
 C67  C     0.142129      0.017285      0.278476 
 C68  C    -0.078151      0.059381      0.209243 
 H69  H    -0.168391      0.045520      0.315231 
 H70  H    -0.044487      0.109854      0.311183 
 C71  C    -0.031997     -0.066417      0.203689 
 H72  H     0.038980     -0.111243      0.300505 
 H73  H    -0.119693     -0.082339      0.309655 
 C74  C     0.137145      0.019576      0.197094 
 H75  H     0.175861      0.069180      0.298361 
 H76  H     0.209277     -0.024166      0.294085 
 H77  H     0.029230     -0.108286      0.178695 
 H78  H    -0.129229     -0.077307      0.189063 
 H79  H    -0.175231      0.048830      0.194057 
 H80  H    -0.050925      0.112969      0.188434 
 H81  H     0.201479     -0.020829      0.172298 
 N82  N     0.007616      0.004942      0.175861 
 H83  H     0.168727      0.072636      0.176638 
 C84  C     0.150132      0.223641     -0.043409 
 C85  C     0.214961      0.170088     -0.008939 
 C86  C     0.320540      0.185879      0.028932 
 C87  C     0.358730      0.258203      0.034459 
 C88  C     0.293661      0.311833     -0.000088 
 C89  C     0.188024      0.295644     -0.037578 
 O90  O     0.380490      0.128275      0.057263 
 C91  C     0.493666      0.139747      0.092871 
 C92  C    -0.430567      0.070206      0.097683 
 C93  C    -0.495194      0.008927      0.140810 
 C94  C     0.423694     -0.041493      0.098531 
 O95  O     0.126845      0.352395     -0.065896 
 C96  C     0.005693      0.341012     -0.093172 
 C97  C    -0.058706      0.413915     -0.098101 
 C98  C     0.015151      0.469557     -0.143811 
 C99  C     0.045306      0.445722     -0.219620 
 H100  H     0.439812      0.272826      0.064059 
 H101  H     0.068325      0.209372     -0.072645 
 H102  H     0.018667      0.314640     -0.144610 
 H103  H    -0.052200      0.305097     -0.058477 
 H104  H    -0.446979      0.180666      0.065177 
 H105  H     0.465894      0.160779      0.145306 
 H106  H    -0.153256      0.406876     -0.117800 
 H107  H    -0.075304      0.436409     -0.045026 
 H108  H    -0.403065      0.050259      0.044642 
 H109  H    -0.340733      0.083437      0.120591 
 H110  H    -0.421018     -0.023320      0.163601 
 H111  H     0.447148      0.031815      0.185281 
 H112  H    -0.041764     -0.480982     -0.143759 
 H113  H     0.103354      0.483839     -0.119398 
 H114  H    -0.041541      0.433695     -0.245966 
 H115  H     0.096300      0.488447     -0.249397 
 H116  H     0.105932      0.397688     -0.222491 
 H117  H     0.347274     -0.012468      0.074455 
 H118  H     0.481700     -0.068010      0.056396 
 H119  H     0.380250     -0.084434      0.131486 
 C120  C     0.168616     -0.222625      0.053688 
 C121  C     0.183790     -0.184689     -0.009434 
 C122  C     0.245973     -0.216933     -0.068274 
 C123  C     0.282457     -0.289310     -0.064740 
 C124  C     0.266449     -0.327408     -0.001688 
 C125  C     0.212938     -0.293529      0.058576 
 O126  O     0.266357     -0.179697     -0.129425 
 C127  C     0.392106     -0.183024     -0.162394 
 C128  C     0.387501     -0.154560     -0.236532 
 C129  C     0.298586     -0.197240     -0.281802 
 C130  C     0.339965     -0.275626     -0.294060 
 O131  O     0.204302     -0.331009      0.120207 
 C132  C     0.188243     -0.291632      0.184463 
 C133  C     0.307921     -0.248264      0.195927 
 C134  C     0.286910     -0.187089      0.249119 
 C135  C     0.224174     -0.211998      0.319193 
 H136  H     0.323557     -0.315679     -0.111786 
 H137  H     0.120156     -0.197094      0.099151 
 H138  H     0.102569     -0.258071      0.185022 
 H139  H     0.171668     -0.331630      0.226484 
 H140  H     0.454878     -0.149753     -0.131883 
 H141  H     0.430883     -0.238001     -0.162829 
 H142  H     0.380991     -0.284854      0.213593 
 H143  H     0.347871     -0.225013      0.146340 
 H144  H     0.358722     -0.097563     -0.234498 
 H145  H     0.483916     -0.155626     -0.261684 
 H146  H     0.201716     -0.196156     -0.257149 
 H147  H     0.293645     -0.169952     -0.332611 
 H148  H     0.378508     -0.161444      0.257681 
 H149  H     0.228922     -0.145031      0.226551 
 H150  H     0.279334     -0.254670      0.342757 
 H151  H     0.215571     -0.166922      0.356309 
 H152  H     0.128238     -0.232773      0.313374 
 H153  H     0.273758     -0.304685     -0.325739 
 H154  H     0.433922     -0.278093     -0.321904 
 H155  H     0.343598     -0.305422     -0.244715 
 N156  N     0.486920      0.496330      0.315175 
 C157  C     0.425324     -0.438017      0.289955 
 C158  C    -0.384153      0.491377      0.280957 
 C159  C     0.413422      0.433764      0.292403 
 C160  C    -0.388787      0.488808      0.199729 
 H161  H    -0.328132     -0.462102      0.296959 
 H162  H    -0.337142      0.442758      0.299729 
 C163  C     0.424521     -0.438202      0.208407 
 H164  H     0.327666     -0.435971      0.313484 
 H165  H     0.473809     -0.389940      0.308864 
 C166  C     0.406680      0.433221      0.210987 
 H167  H     0.458498      0.384554      0.310853 
 H168  H     0.317483      0.435545      0.318318 
 H169  H     0.326983     -0.432661      0.192183 
 H170  H     0.479261     -0.392191      0.185869 
 H171  H    -0.331810     -0.467228      0.174887 
 H172  H    -0.347947      0.437765      0.179431 
 H173  H     0.307611      0.437131      0.196669 
 N174  N     0.479450      0.494296      0.178951 
 H175  H     0.444446      0.382387      0.188354 
 C176  C    -0.264905     -0.197162     -0.067356 
 C177  C    -0.263723     -0.160803     -0.003346 
 C178  C    -0.313386     -0.194305      0.057992 
 C179  C    -0.355792     -0.266186      0.055143 
 C180  C    -0.345367     -0.304970     -0.007941 
 C181  C    -0.298505     -0.270366     -0.069787 
 O182  O    -0.317136     -0.153989      0.117911 
 C183  C    -0.330569     -0.188446      0.184570 
 C184  C    -0.212563     -0.232617      0.196374 
 C185  C    -0.210577     -0.261679      0.271057 
 C186  C    -0.324462     -0.310036      0.290991 
 O187  O    -0.284114     -0.309401     -0.130637 
 C188  C    -0.218349     -0.279718     -0.192212 
 C189  C    -0.076947     -0.264904     -0.185382 
 C190  C     0.003596     -0.329059     -0.163813 
 C191  C    -0.018499     -0.351451     -0.086773 
 H192  H    -0.395663     -0.292226      0.102674 
 H193  H    -0.230955     -0.169715     -0.115261 
 H194  H    -0.229350     -0.319288     -0.234263 
 H195  H    -0.267839     -0.230595     -0.207630 
 H196  H    -0.342853     -0.145436      0.224037 
 H197  H    -0.417657     -0.221072      0.188187 
 H198  H    -0.037232     -0.244892     -0.236301 
 H199  H    -0.062678     -0.220742     -0.148288 
 H200  H    -0.204895     -0.278316      0.159578 
 H201  H    -0.127156     -0.199889      0.184342 
 H202  H    -0.122723     -0.292418      0.275572 
 H203  H    -0.207183     -0.216570      0.308295 
 H204  H    -0.012915     -0.375347     -0.197965 
 H205  H     0.104130     -0.314677     -0.173846 
 H206  H    -0.008736     -0.305243     -0.051518 
 H207  H    -0.113007     -0.374845     -0.075428 
 H208  H     0.050550     -0.392214     -0.072646 
 H209  H    -0.318519     -0.333400      0.343324 
 H210  H    -0.414081     -0.280348      0.291289 
 H211  H    -0.329077     -0.354473      0.253387 
 Cu212  Cu     0.011539     -0.001295     -0.436227 
 Cu213  Cu     0.019779     -0.004880      0.427149 
 O214  O    -0.133728      0.058873      0.441348 
 C215  C    -0.149176      0.094506      0.498261 
 O216  O    -0.120784      0.072017     -0.442135 
 O217  O     0.121193      0.084428      0.429516 
 C218  C     0.152120      0.110071      0.487691 
 O219  O     0.139255      0.077807     -0.453494 
 O220  O    -0.084243     -0.092932      0.437612 
 C221  C    -0.119656     -0.116707      0.498022 
 O222  O    -0.111425     -0.082797     -0.444614 
 O223  O     0.169825     -0.069842      0.442096 
 C224  C     0.184877     -0.099088     -0.498678 
 O225  O     0.144319     -0.074303     -0.439599 
 Cu226  Cu    -0.485785      0.495362     -0.435506 
 Cu227  Cu    -0.488129      0.498924      0.428219 
 O228  O     0.412855     -0.412063      0.441926 
 C229  C     0.378679     -0.388946     -0.497247 
 O230  O     0.390974     -0.422302     -0.439892 
 O231  O    -0.334074     -0.437137      0.437619 
 C232  C    -0.313780     -0.408153      0.496333 
 O233  O    -0.350999     -0.432914     -0.444024 
 O234  O     0.356651      0.437050      0.446118 
 C235  C     0.346345      0.400880     -0.497155 
 O236  O     0.380200      0.422701     -0.438278 
 O237  O    -0.390158      0.408259      0.427410 
 C238  C    -0.351659      0.383267      0.484120 
 O239  O    -0.359685      0.415648     -0.456927 
 C240  C    -0.204784      0.294934     -0.469004 
 C241  C    -0.295907      0.308767      0.483065 
 C242  C    -0.337027      0.253766      0.439028 
 C243  C    -0.286455      0.184162      0.444778 
 C244  C    -0.197816      0.170204      0.493827 
 C245  C    -0.154145      0.225457     -0.463613 
 O246  O    -0.424603      0.270198      0.391719 
 C247  C    -0.496290      0.213792      0.360859 
 C248  C     0.476021      0.235187      0.286926 
 C249  C    -0.406161      0.258300      0.240785 
 C250  C    -0.300442      0.201794      0.236104 
 O251  O    -0.061815      0.208480     -0.419377 
 C252  C     0.004432      0.263728     -0.383858 
 C253  C    -0.042323      0.266645     -0.307170 
 C254  C    -0.186514      0.271292     -0.293888 
 C255  C    -0.228063      0.276683     -0.216252 
 H256  H    -0.314051      0.139542      0.411655 
 H257  H    -0.175076      0.338715     -0.435492 
 H258  H     0.104901      0.248751     -0.387819 
 H259  H    -0.000985      0.316527     -0.409549 
 H260  H    -0.447795      0.161647      0.358738 
 H261  H     0.415363      0.206443      0.393646 
 H262  H    -0.008133      0.218698     -0.280399 
 H263  H     0.002197      0.313116     -0.282812 
 H264  H     0.429920      0.189234      0.262341 
 H265  H     0.405727      0.278778      0.289388 
 H266  H    -0.434490      0.270584      0.187773 
 H267  H    -0.368302      0.309071      0.260890 
 H268  H    -0.222377      0.318255     -0.321467 
 H269  H    -0.230396      0.223222     -0.315995 
 H270  H    -0.190481      0.325698     -0.193107 
 H271  H    -0.331528      0.278744     -0.208360 
 H272  H    -0.194575      0.230236     -0.187100 
 H273  H    -0.335044      0.149682      0.217845 
 H274  H    -0.222014      0.219088      0.199581 
 H275  H    -0.261189      0.192972      0.287100 
 N276  N     0.001941      0.001212     -0.186746 
 C277  C     0.129537      0.019563     -0.217712 
 C278  C    -0.032908     -0.070971     -0.212519 
 C279  C    -0.088411      0.054340     -0.211971 
 C280  C    -0.031228     -0.071967     -0.294005 
 H281  H     0.033583     -0.111130     -0.193701 
 H282  H    -0.128005     -0.085452     -0.189994 
 C283  C     0.131852      0.018021     -0.299276 
 H284  H     0.156455      0.073481     -0.199395 
 H285  H     0.198482     -0.018792     -0.198343 
 C286  C    -0.086306      0.053348     -0.293504 
 H287  H    -0.183959      0.041558     -0.189000 
 H288  H    -0.063834      0.108434     -0.192920 
 H289  H     0.161690      0.070752     -0.321222 
 H290  H     0.200842     -0.021973     -0.320558 
 H291  H     0.035466     -0.112954     -0.315942 
 H292  H    -0.125436     -0.086596     -0.311065 
 H293  H    -0.060254      0.106754     -0.315105 
 N294  N     0.005409     -0.000431     -0.322890 
 H295  H    -0.181130      0.040568     -0.310819 
 C296  C     0.207166      0.310114      0.451051 
 C297  C     0.297907      0.325031      0.498915 
 C298  C     0.343425      0.270480     -0.458548 
 C299  C     0.294411      0.200546     -0.463688 
 C300  C     0.203722      0.185431      0.488421 
 C301  C     0.158789      0.239920      0.445550 
 O302  O     0.435086      0.288182     -0.414000 
 C303  C    -0.499862      0.233514     -0.377352 
 C304  C     0.451212      0.230342     -0.300716 
 C305  C     0.306580      0.227771     -0.287230 
 C306  C     0.263342      0.227649     -0.209306 
 O307  O     0.065761      0.222629      0.401768 
 C308  C     0.005729      0.278413      0.363956 
 C309  C     0.087325      0.298094      0.298090 
 C310  C     0.106978      0.234560      0.247331 
 C311  C     0.191876      0.251794      0.181746 
 H312  H     0.324115      0.157988     -0.429185 
 H313  H     0.173255      0.353949      0.419271 
 H314  H    -0.086601      0.257193      0.350008 
 H315  H    -0.014803      0.325335      0.398103 
 H316  H     0.496509      0.180565     -0.403044 
 H317  H    -0.399506      0.249315     -0.380844 
 H318  H     0.042099      0.342768      0.271457 
 H319  H     0.180472      0.318412      0.311497 
 H320  H     0.493044      0.182838     -0.276915 
 H321  H     0.487364      0.277332     -0.273133 
 H322  H     0.264953      0.274826     -0.312106 
 H323  H     0.268880      0.179712     -0.312478 
 H324  H     0.148279      0.189185      0.274919 
 H325  H     0.013996      0.216164      0.231819 
 H326  H     0.155541      0.296853      0.151893 
 H327  H     0.288307      0.266274      0.194461 
 H328  H     0.198421      0.204655      0.147013 
 H329  H     0.299388      0.180577     -0.182157 
 H330  H     0.296109      0.276274     -0.182886 
 H331  H     0.159622      0.226150     -0.201839 
 C332  C     0.170403     -0.225706     -0.458841 
 C333  C     0.240968     -0.172989     -0.496644 
 C334  C     0.357401     -0.189158      0.467905 
 C335  C     0.400741     -0.260675      0.468147 
 C336  C     0.329330     -0.313476     -0.494693 
 C337  C     0.214242     -0.297033     -0.458039 
 O338  O     0.423144     -0.133046      0.436032 
 C339  C    -0.459550     -0.147017      0.396936 
 C340  C    -0.390357     -0.076920      0.377323 
 C341  C    -0.458618     -0.024621      0.330091 
 C342  C     0.436879      0.020267      0.368246 
 O343  O     0.150119     -0.352624     -0.424198 
 C344  C     0.027207     -0.339610     -0.390862 
 C345  C    -0.024216     -0.406879     -0.352915 
 C346  C    -0.044174     -0.473734     -0.398825 
 C347  C     0.076379      0.483210     -0.419233 
 H348  H     0.489739     -0.275626      0.439788 
 H349  H     0.080396     -0.211326     -0.431290 
 H350  H     0.033822     -0.295114     -0.353121 
 H351  H    -0.036562     -0.322754     -0.430855 
 H352  H    -0.398751     -0.180550      0.428222 
 H353  H    -0.480072     -0.177648      0.349748 
 H354  H     0.039229     -0.420847     -0.311750 
 H355  H    -0.115625     -0.392807     -0.325690 
 H356  H    -0.365418     -0.048226      0.424968 
 H357  H    -0.299599     -0.091966      0.350364 
 H358  H    -0.388095      0.012400      0.304938 
 H359  H    -0.498537     -0.055062      0.287329 
 H360  H    -0.112940      0.490105     -0.370922 
 H361  H    -0.089499     -0.457162     -0.446347 
 H362  H     0.118688      0.460846     -0.373115 
 H363  H     0.055614      0.437837     -0.453639 
 H364  H     0.149351     -0.483681     -0.447251 
 H365  H     0.359860     -0.013737      0.390921 
 H366  H     0.473632      0.051738      0.411148 
 H367  H     0.394948      0.058352      0.332503 
 N368  N     0.493032      0.497168     -0.184853 
 C369  C    -0.441703     -0.437534     -0.213109 
 C370  C    -0.437341      0.433450     -0.213511 
 C371  C     0.364132      0.495524     -0.210281 
 C372  C    -0.429690      0.434212     -0.295338 
 H373  H    -0.341356      0.433376     -0.194296 
 H374  H    -0.485396      0.384251     -0.193050 
 C375  C    -0.437450     -0.437107     -0.294747 
 H376  H    -0.490569     -0.389243     -0.191352 
 H377  H    -0.344772     -0.436516     -0.195148 
 C378  C     0.369776      0.494245     -0.291985 
 H379  H     0.313769      0.447626     -0.188547 
 H380  H     0.311273     -0.456875     -0.190026 
 H381  H    -0.486354     -0.389526     -0.314126 
 H382  H    -0.338540     -0.434046     -0.316424 
 H383  H    -0.330174      0.436434     -0.316263 
 H384  H    -0.470858      0.384738     -0.316270 
 H385  H     0.316880     -0.459945     -0.312237 
 N386  N    -0.497498      0.497165     -0.321436 
 H387  H     0.324775      0.444711     -0.310544 
 C388  C    -0.118945     -0.240355      0.448088 
 C389  C    -0.166455     -0.193055     -0.499480 
 C390  C    -0.254675     -0.217101     -0.446738 
 C391  C    -0.298571     -0.288193     -0.448106 
 C392  C    -0.253806     -0.334934      0.498249 
 C393  C    -0.158545     -0.312633      0.448675 
 O394  O    -0.297314     -0.173421     -0.392910 
 C395  C    -0.398891     -0.126183     -0.408258 
 C396  C    -0.392066     -0.058281     -0.363897 
 C397  C     0.490617     -0.010136     -0.366495 
 C398  C     0.467687      0.017181     -0.440034 
 O399  O    -0.108504     -0.361935      0.401525 
 C400  C     0.026170     -0.361109      0.386007 
 C401  C     0.082884     -0.433615      0.403878 
 C402  C     0.051845     -0.497069      0.356094 
 C403  C    -0.086847      0.478692      0.363130 
 H404  H    -0.370546     -0.305114     -0.408077 
 H405  H    -0.049476     -0.221897      0.407338 
 H406  H     0.043975     -0.349146      0.330021 
 H407  H     0.071506     -0.318401      0.415691 
 H408  H    -0.391764     -0.112232     -0.464192 
 H409  H    -0.488996     -0.155174     -0.397374 
 H410  H     0.186340     -0.427716      0.403489 
 H411  H     0.052034     -0.447289      0.458133 
 H412  H    -0.378208     -0.072613     -0.309160 
 H413  H    -0.307912     -0.026914     -0.382296 
 H414  H     0.406906     -0.040443     -0.345921 
 H415  H    -0.499931      0.036183     -0.331189 
 H416  H     0.078509     -0.483034      0.301264 
 H417  H     0.112082      0.457157      0.368737 
 H418  H    -0.103401      0.431388      0.330423 
 H419  H    -0.116417      0.464397      0.417478 
 H420  H    -0.149903     -0.478421      0.347081 
 H421  H    -0.452798      0.050262     -0.461668 
 H422  H     0.454223     -0.027563     -0.476365 
 H423  H     0.381296      0.049718     -0.439464 
loop_  
_geom_bond_atom_site_label_1  
_geom_bond_atom_site_label_2  
Cu0   Cu1 
Cu0   O4 
Cu0   O7 
Cu0   O10 
Cu0   O13 
Cu0   N82 
Cu1   O2 
Cu1   O5 
Cu1   O8 
Cu1   O11 
Cu1   N276 
O2   C3 
C3   O4 
C3   C32 
O5   C6 
C6   O7 
C6   C85 
O8   C9 
C9   O10 
C9   C177 
O11   C12 
C12   O13 
C12   C121 
Cu14   Cu15 
Cu14   O18 
Cu14   O21 
Cu14   O24 
Cu14   O27 
Cu14   N174 
Cu15   O16 
Cu15   O19 
Cu15   O22 
Cu15   O25 
Cu15   N368 
O16   C17 
C17   O18 
C17   C124 
O19   C20 
C20   O21 
C20   C180 
O22   C23 
C23   O24 
C23   C88 
O25   C26 
C26   O27 
C26   C29 
C28   C29 
C28   C33 
C28   H45 
C29   C30 
C30   C31 
C30   O34 
C31   C32 
C31   H44 
C32   C33 
C33   O39 
O34   C35 
C35   C36 
C35   H48 
C35   H49 
C36   C37 
C36   H52 
C36   H53 
C37   C38 
C37   H54 
C37   H55 
C38   H61 
C38   H62 
C38   H63 
O39   C40 
C40   C41 
C40   H46 
C40   H47 
C41   C42 
C41   H50 
C41   H51 
C42   C43 
C42   H56 
C42   H57 
C43   H58 
C43   H59 
C43   H60 
N64   C65 
N64   C66 
N64   C67 
N64   Cu213 
C65   C71 
C65   H72 
C65   H73 
C66   C68 
C66   H69 
C66   H70 
C67   C74 
C67   H75 
C67   H76 
C68   H79 
C68   H80 
C68   N82 
C71   H77 
C71   H78 
C71   N82 
C74   H81 
C74   N82 
C74   H83 
C84   C85 
C84   C89 
C84   H101 
C85   C86 
C86   C87 
C86   O90 
C87   C88 
C87   H100 
C88   C89 
C89   O95 
O90   C91 
C91   C92 
C91   H104 
C91   H105 
C92   C93 
C92   H108 
C92   H109 
C93   C94 
C93   H110 
C93   H111 
C94   H117 
C94   H118 
C94   H119 
O95   C96 
C96   C97 
C96   H102 
C96   H103 
C97   C98 
C97   H106 
C97   H107 
C98   C99 
C98   H112 
C98   H113 
C99   H114 
C99   H115 
C99   H116 
C120   C121 
C120   C125 
C120   H137 
C121   C122 
C122   C123 
C122   O126 
C123   C124 
C123   H136 
C124   C125 
C125   O131 
O126   C127 
C127   C128 
C127   H140 
C127   H141 
C128   C129 
C128   H144 
C128   H145 
C129   C130 
C129   H146 
C129   H147 
C130   H153 
C130   H154 
C130   H155 
O131   C132 
C132   C133 
C132   H138 
C132   H139 
C133   C134 
C133   H142 
C133   H143 
C134   C135 
C134   H148 
C134   H149 
C135   H150 
C135   H151 
C135   H152 
N156   C157 
N156   C158 
N156   C159 
N156   Cu227 
C157   C163 
C157   H164 
C157   H165 
C158   C160 
C158   H161 
C158   H162 
C159   C166 
C159   H167 
C159   H168 
C160   H171 
C160   H172 
C160   N174 
C163   H169 
C163   H170 
C163   N174 
C166   H173 
C166   N174 
C166   H175 
C176   C177 
C176   C181 
C176   H193 
C177   C178 
C178   C179 
C178   O182 
C179   C180 
C179   H192 
C180   C181 
C181   O187 
O182   C183 
C183   C184 
C183   H196 
C183   H197 
C184   C185 
C184   H200 
C184   H201 
C185   C186 
C185   H202 
C185   H203 
C186   H209 
C186   H210 
C186   H211 
O187   C188 
C188   C189 
C188   H194 
C188   H195 
C189   C190 
C189   H198 
C189   H199 
C190   C191 
C190   H204 
C190   H205 
C191   H206 
C191   H207 
C191   H208 
Cu212   Cu213 
Cu212   O216 
Cu212   O219 
Cu212   O222 
Cu212   O225 
Cu212   N294 
Cu213   O214 
Cu213   O217 
Cu213   O220 
Cu213   O223 
O214   C215 
C215   O216 
C215   C244 
O217   C218 
C218   O219 
C218   C300 
O220   C221 
C221   O222 
C221   C389 
O223   C224 
C224   O225 
C224   C333 
Cu226   Cu227 
Cu226   O230 
Cu226   O233 
Cu226   O236 
Cu226   O239 
Cu226   N386 
Cu227   O228 
Cu227   O231 
Cu227   O234 
Cu227   O237 
O228   C229 
C229   O230 
C229   C336 
O231   C232 
C232   O233 
C232   C392 
O234   C235 
C235   O236 
C235   C297 
O237   C238 
C238   O239 
C238   C241 
C240   C241 
C240   C245 
C240   H257 
C241   C242 
C242   C243 
C242   O246 
C243   C244 
C243   H256 
C244   C245 
C245   O251 
O246   C247 
C247   C248 
C247   H260 
C247   H261 
C248   C249 
C248   H264 
C248   H265 
C249   C250 
C249   H266 
C249   H267 
C250   H273 
C250   H274 
C250   H275 
O251   C252 
C252   C253 
C252   H258 
C252   H259 
C253   C254 
C253   H262 
C253   H263 
C254   C255 
C254   H268 
C254   H269 
C255   H270 
C255   H271 
C255   H272 
N276   C277 
N276   C278 
N276   C279 
C277   C283 
C277   H284 
C277   H285 
C278   C280 
C278   H281 
C278   H282 
C279   C286 
C279   H287 
C279   H288 
C280   H291 
C280   H292 
C280   N294 
C283   H289 
C283   H290 
C283   N294 
C286   H293 
C286   N294 
C286   H295 
C296   C297 
C296   C301 
C296   H313 
C297   C298 
C298   C299 
C298   O302 
C299   C300 
C299   H312 
C300   C301 
C301   O307 
O302   C303 
C303   C304 
C303   H316 
C303   H317 
C304   C305 
C304   H320 
C304   H321 
C305   C306 
C305   H322 
C305   H323 
C306   H329 
C306   H330 
C306   H331 
O307   C308 
C308   C309 
C308   H314 
C308   H315 
C309   C310 
C309   H318 
C309   H319 
C310   C311 
C310   H324 
C310   H325 
C311   H326 
C311   H327 
C311   H328 
C332   C333 
C332   C337 
C332   H349 
C333   C334 
C334   C335 
C334   O338 
C335   C336 
C335   H348 
C336   C337 
C337   O343 
O338   C339 
C339   C340 
C339   H352 
C339   H353 
C340   C341 
C340   H356 
C340   H357 
C341   C342 
C341   H358 
C341   H359 
C342   H365 
C342   H366 
C342   H367 
O343   C344 
C344   C345 
C344   H350 
C344   H351 
C345   C346 
C345   H354 
C345   H355 
C346   C347 
C346   H360 
C346   H361 
C347   H362 
C347   H363 
C347   H364 
N368   C369 
N368   C370 
N368   C371 
C369   C375 
C369   H376 
C369   H377 
C370   C372 
C370   H373 
C370   H374 
C371   C378 
C371   H379 
C371   H380 
C372   H383 
C372   H384 
C372   N386 
C375   H381 
C375   H382 
C375   N386 
C378   H385 
C378   N386 
C378   H387 
C388   C389 
C388   C393 
C388   H405 
C389   C390 
C390   C391 
C390   O394 
C391   C392 
C391   H404 
C392   C393 
C393   O399 
O394   C395 
C395   C396 
C395   H408 
C395   H409 
C396   C397 
C396   H412 
C396   H413 
C397   C398 
C397   H414 
C397   H415 
C398   H421 
C398   H422 
C398   H423 
O399   C400 
C400   C401 
C400   H406 
C400   H407 
C401   C402 
C401   H410 
C401   H411 
C402   C403 
C402   H416 
C402   H417 
C403   H418 
C403   H419 
C403   H420 
  
#END  
