data_
_symmetry_cell_setting           triclinic 
_symmetry_space_group_name_H-M   'P 1' 
_symmetry_Int_Tables_number      1 
loop_ 
_symmetry_equiv_pos_site_id 
_symmetry_equiv_pos_as_xyz 
1 x,y,z 
_cell_length_a             25.851656        
_cell_length_b             25.851657        
_cell_length_c             25.851657        
_cell_angle_alpha          90.000000        
_cell_angle_beta           90.000000        
_cell_angle_gamma          90.000000        
loop_  
_atom_site_label   
_atom_site_type_symbol  
_atom_site_fract_x  
_atom_site_fract_y  
_atom_site_fract_z 
 Zn0  Zn    -0.034343     -0.040923     -0.011097 
 Zn1  Zn    -0.031413      0.046772      0.074401 
 Zn2  Zn     0.054241     -0.041948      0.072163 
 Zn3  Zn     0.053162      0.044655     -0.014542 
 H4  H    -0.193936      0.003328      0.118797 
 H5  H     0.213824      0.018823     -0.051709 
 H6  H     0.095087     -0.199419      0.023676 
 H7  H    -0.067724      0.207163      0.032176 
 H8  H     0.019673      0.087213     -0.172269 
 H9  H     0.031114     -0.078056      0.232062 
 H10  H    -0.124262      0.044598     -0.125852 
 H11  H     0.148993     -0.047481      0.195045 
 H12  H    -0.153682     -0.159387      0.085440 
 H13  H     0.177591      0.136743     -0.020254 
 H14  H     0.026433     -0.152246     -0.103657 
 H15  H    -0.032046      0.163877      0.165139 
 H16  H    -0.136789     -0.019475     -0.144181 
 H17  H     0.163489      0.016961      0.211086 
 H18  H    -0.173657     -0.150793      0.020984 
 H19  H     0.194961      0.153714      0.043228 
 H20  H    -0.035503     -0.173231     -0.121845 
 H21  H     0.030259      0.183776      0.183467 
 H22  H    -0.228346      0.094706      0.210460 
 H23  H     0.241415     -0.074947     -0.163926 
 H24  H     0.210026     -0.119929      0.083990 
 H25  H    -0.190662      0.244171     -0.058621 
 H26  H     0.108212      0.201915     -0.233926 
 H27  H    -0.058397     -0.204066      0.256324 
 H28  H    -0.194937      0.147766      0.236938 
 H29  H     0.223414     -0.139122     -0.177255 
 H30  H     0.197607     -0.180997      0.056688 
 H31  H    -0.203250      0.221721     -0.121486 
 H32  H     0.172061      0.215681     -0.215127 
 H33  H    -0.119701     -0.220800      0.232172 
 H34  H    -0.192299      0.185009      0.148433 
 H35  H     0.195445     -0.152414     -0.084403 
 H36  H     0.108428     -0.179801      0.105834 
 H37  H    -0.108731      0.203039     -0.136525 
 H38  H     0.191008      0.125042     -0.193738 
 H39  H    -0.137397     -0.127229      0.206439 
 H40  H    -0.218323      0.130322      0.117187 
 H41  H     0.211187     -0.088112     -0.068329 
 H42  H     0.125617     -0.118732      0.130327 
 H43  H    -0.092694      0.224179     -0.073859 
 H44  H     0.128518      0.103449     -0.209995 
 H45  H    -0.076431     -0.109092      0.230829 
 H46  H    -0.220794      0.054971     -0.103549 
 H47  H     0.238906     -0.061386      0.162289 
 H48  H    -0.125477     -0.251418      0.062793 
 H49  H     0.146968      0.226726     -0.037836 
 H50  H     0.044764     -0.124674     -0.195338 
 H51  H    -0.050478      0.134319      0.255921 
 H52  H    -0.228692     -0.012079     -0.118310 
 H53  H     0.256481      0.002452      0.182281 
 H54  H    -0.138731     -0.236472     -0.003554 
 H55  H     0.168457      0.246682      0.024804 
 H56  H    -0.017362     -0.147892     -0.214446 
 H57  H     0.011633      0.157035      0.276008 
 H58  H    -0.118255      0.127996      0.181304 
 H59  H     0.131513     -0.118544     -0.151017 
 H60  H     0.186997     -0.219317      0.145047 
 H61  H    -0.166736      0.134164     -0.096967 
 H62  H     0.150758      0.182938     -0.124593 
 H63  H    -0.093623     -0.188343      0.143913 
 H64  H    -0.150291      0.074210      0.154996 
 H65  H     0.150456     -0.055084     -0.135337 
 H66  H     0.203619     -0.159675      0.173483 
 H67  H    -0.151591      0.158220     -0.035246 
 H68  H     0.089336      0.164159     -0.146961 
 H69  H    -0.033122     -0.169658      0.168672 
 H70  H    -0.238502      0.054509      0.298059 
 H71  H     0.140647     -0.021292     -0.215795 
 H72  H     0.291770     -0.120204      0.033721 
 H73  H    -0.232360      0.138923     -0.000387 
 H74  H     0.055218      0.246119     -0.126871 
 H75  H     0.007430     -0.247631      0.158683 
 H76  H    -0.196599      0.012794     -0.214602 
 H77  H     0.225379     -0.011665      0.278856 
 H78  H    -0.214866     -0.236977      0.091832 
 H79  H     0.263621      0.212698      0.010952 
 H80  H     0.003270     -0.240823     -0.179400 
 H81  H    -0.006247      0.251971      0.240569 
 H82  H    -0.159416      0.034681      0.246067 
 H83  H     0.162971     -0.109695     -0.246089 
 H84  H     0.288732     -0.155141      0.128050 
 H85  H    -0.265500      0.156694     -0.088155 
 H86  H     0.141631      0.278636     -0.149581 
 H87  H    -0.080117     -0.284581      0.171571 
 H88  H    -0.213838      0.102875     -0.175613 
 H89  H     0.248954     -0.098972      0.237207 
 H90  H    -0.240660     -0.149716      0.125702 
 H91  H     0.220958      0.232001     -0.077675 
 H92  H     0.091402     -0.197611     -0.193513 
 H93  H    -0.094338      0.207061      0.257569 
 C94  C    -0.185717      0.003538      0.035234 
 C95  C     0.206781      0.007951      0.030960 
 C96  C     0.011575     -0.194857      0.025974 
 C97  C     0.015456      0.199190      0.028716 
 C98  C     0.000665      0.005591     -0.165680 
 C99  C     0.020632      0.004778      0.226310 
 C100  C    -0.213832      0.003205      0.081520 
 C101  C     0.234337      0.011218     -0.015530 
 C102  C     0.058789     -0.220982      0.021936 
 C103  C    -0.030883      0.227129      0.027120 
 C104  C     0.011218      0.051259     -0.192848 
 C105  C     0.022761     -0.042275      0.253011 
 C106  C    -0.211078      0.003729     -0.012845 
 C107  C     0.232775     -0.001929      0.077631 
 C108  C    -0.035323     -0.222066      0.023733 
 C109  C     0.062758      0.224430      0.020034 
 C110  C    -0.008429     -0.040792     -0.192421 
 C111  C     0.010204      0.050901      0.252942 
 C112  C    -0.128079      0.000953      0.037490 
 C113  C     0.149098      0.004244      0.027879 
 C114  C     0.012214     -0.137116      0.026898 
 C115  C     0.012660      0.141322      0.029748 
 C116  C     0.002600      0.006429     -0.107944 
 C117  C     0.017561      0.002897      0.168513 
 C118  C    -0.154303      0.019391     -0.142508 
 C119  C     0.180371     -0.022130      0.208894 
 C120  C    -0.168497     -0.180217      0.051435 
 C121  C     0.192639      0.168846      0.003435 
 C122  C     0.004551     -0.169365     -0.135976 
 C123  C    -0.009784      0.180173      0.197665 
 C124  C    -0.189458      0.108782      0.220628 
 C125  C     0.208822     -0.099094     -0.176861 
 C126  C     0.214632     -0.161780      0.090614 
 C127  C    -0.200498      0.209207     -0.080850 
 C128  C     0.132141      0.212968     -0.200472 
 C129  C    -0.078720     -0.216938      0.221179 
 C130  C    -0.181843      0.147872      0.130482 
 C131  C     0.179684     -0.112876     -0.082759 
 C132  C     0.127808     -0.160502      0.138326 
 C133  C    -0.104084      0.189819     -0.096300 
 C134  C     0.152129      0.118419     -0.177836 
 C135  C    -0.096471     -0.122394      0.195672 
 C136  C    -0.200663      0.017504     -0.105916 
 C137  C     0.224150     -0.022038      0.169260 
 C138  C    -0.128497     -0.219858      0.034273 
 C139  C     0.154224      0.213605      0.002048 
 C140  C     0.005077     -0.132247     -0.181801 
 C141  C    -0.010731      0.142271      0.242900 
 C142  C    -0.156813      0.112953      0.171392 
 C143  C     0.164441     -0.095257     -0.137430 
 C144  C     0.184722     -0.177124      0.139594 
 C145  C    -0.156257      0.169647     -0.075988 
 C146  C     0.129669      0.170179     -0.159267 
 C147  C    -0.074017     -0.174982      0.179226 
 C148  C    -0.165856      0.073603      0.262170 
 C149  C     0.193901     -0.083795     -0.232419 
 C150  C     0.272388     -0.174839      0.094037 
 C151  C    -0.254004      0.189504     -0.063528 
 C152  C     0.115570      0.266698     -0.181075 
 C153  C    -0.058210     -0.270567      0.205316 
 C154  C    -0.166198      0.037466     -0.198015 
 C155  C     0.196633     -0.039068      0.263629 
 C156  C    -0.221017     -0.204237      0.065266 
 C157  C     0.247481      0.182996     -0.014867 
 C158  C     0.025958     -0.223623     -0.147814 
 C159  C    -0.030435      0.234490      0.210310 
 H160  H    -0.146436      0.157734      0.084206 
 H161  H     0.134339     -0.111347     -0.044629 
 H162  H     0.098287     -0.172418      0.188184 
 H163  H    -0.060673      0.149427     -0.093857 
 H164  H     0.155269      0.077794     -0.134828 
 H165  H    -0.091982     -0.080703      0.153688 
 O166  O     0.010502      0.002432      0.030431 
 O167  O    -0.180334      0.004527     -0.056008 
 O168  O     0.203503     -0.002202      0.121840 
 O169  O    -0.079808     -0.193905      0.029686 
 O170  O     0.106742      0.195142      0.023707 
 O171  O    -0.017728     -0.084756     -0.164553 
 O172  O     0.011989      0.095395      0.224310 
 O173  O    -0.105300      0.027854      0.071768 
 O174  O     0.047220     -0.115435      0.053719 
 O175  O     0.031159      0.040459     -0.087018 
 O176  O    -0.106317     -0.028667      0.005101 
 O177  O    -0.021620     -0.114076     -0.000058 
 O178  O    -0.024690     -0.026564     -0.084108 
 O179  O     0.126480     -0.023574      0.061416 
 O180  O     0.046444      0.117151      0.003654 
 O181  O    -0.009222      0.037411      0.145992 
 O182  O     0.127144      0.028167     -0.009048 
 O183  O    -0.023778      0.120653      0.055600 
 O184  O     0.041200     -0.034079      0.146381 
 Zn185  Zn    -0.446588      0.041392      0.079589 
 Zn186  Zn    -0.445335     -0.043090     -0.008720 
 Zn187  Zn     0.466944      0.042562     -0.006985 
 Zn188  Zn     0.467457     -0.045368      0.078111 
 H189  H     0.306904     -0.017785      0.113474 
 H190  H    -0.285328      0.001811     -0.051817 
 H191  H    -0.412158     -0.201797     -0.009388 
 H192  H     0.428076      0.203703      0.031385 
 H193  H     0.494820      0.081598     -0.167136 
 H194  H     0.488363     -0.083139      0.237839 
 H195  H     0.372711      0.047322     -0.133091 
 H196  H    -0.357511     -0.044479      0.188832 
 H197  H     0.371379     -0.132619      0.086021 
 H198  H    -0.328725      0.129555     -0.011551 
 H199  H    -0.432495     -0.162936     -0.106157 
 H200  H     0.476623      0.152180      0.166704 
 H201  H     0.354765     -0.015934     -0.150391 
 H202  H    -0.347125      0.020413      0.205529 
 H203  H     0.381561     -0.144044      0.019887 
 H204  H    -0.308959      0.142906      0.051999 
 H205  H    -0.495843     -0.183617     -0.119436 
 H206  H    -0.460328      0.172696      0.180943 
 H207  H     0.268822      0.079428      0.231663 
 H208  H    -0.230567     -0.088460     -0.175783 
 H209  H    -0.329162     -0.205865      0.069941 
 H210  H     0.311979      0.258184     -0.064357 
 H211  H    -0.407301      0.193784     -0.218954 
 H212  H     0.412644     -0.213762      0.284968 
 H213  H     0.287840      0.143527      0.243682 
 H214  H    -0.252638     -0.150949     -0.191053 
 H215  H    -0.303563     -0.224202      0.130470 
 H216  H     0.299789      0.237549     -0.127951 
 H217  H    -0.343120      0.207792     -0.201632 
 H218  H     0.349399     -0.228753      0.265262 
 H219  H     0.312053      0.155463      0.149664 
 H220  H    -0.267117     -0.177415     -0.101944 
 H221  H    -0.386692     -0.210851      0.179895 
 H222  H     0.390723      0.220962     -0.146652 
 H223  H    -0.328602      0.113822     -0.176789 
 H224  H     0.329067     -0.135186      0.256090 
 H225  H     0.295147      0.091137      0.135133 
 H226  H    -0.243680     -0.118173     -0.077714 
 H227  H    -0.416539     -0.200883      0.119547 
 H228  H     0.412097      0.239106     -0.084612 
 H229  H    -0.393060      0.098165     -0.192122 
 H230  H     0.392064     -0.115320      0.272084 
 H231  H     0.283364      0.064715     -0.099256 
 H232  H    -0.262800     -0.054708      0.167244 
 H233  H     0.364549     -0.231717      0.099181 
 H234  H    -0.354522      0.223485     -0.023096 
 H235  H    -0.423113     -0.129127     -0.196477 
 H236  H     0.461048      0.131491      0.260592 
 H237  H     0.263294      0.001922     -0.120164 
 H238  H    -0.251583      0.010582      0.187100 
 H239  H     0.383450     -0.238173      0.033341 
 H240  H    -0.333854      0.236034      0.041645 
 H241  H    -0.486141     -0.153049     -0.212034 
 H242  H    -0.475859      0.154844      0.276085 
 H243  H     0.378433      0.122112      0.214003 
 H244  H    -0.339014     -0.128063     -0.148018 
 H245  H    -0.328846     -0.134677      0.164593 
 H246  H     0.337090      0.149135     -0.104326 
 H247  H    -0.361268      0.178358     -0.110371 
 H248  H     0.365342     -0.185121      0.179794 
 H249  H     0.358609      0.058492      0.200020 
 H250  H    -0.310972     -0.069835     -0.126881 
 H251  H    -0.359459     -0.122566      0.104869 
 H252  H     0.354781      0.174270     -0.043679 
 H253  H    -0.425140      0.162930     -0.128113 
 H254  H     0.428156     -0.168120      0.199872 
 H255  H     0.372431      0.026470      0.282327 
 H256  H    -0.341418     -0.031092     -0.207378 
 H257  H    -0.238733     -0.220544      0.030117 
 H258  H     0.272528      0.148812     -0.010358 
 H259  H    -0.458584      0.244524     -0.114065 
 H260  H     0.471088     -0.246390      0.178148 
 H261  H     0.291756      0.018749     -0.215519 
 H262  H    -0.290929     -0.006953      0.279748 
 H263  H     0.293388     -0.185086      0.013288 
 H264  H    -0.240924      0.203842      0.018119 
 H265  H    -0.462882     -0.247762     -0.183823 
 H266  H    -0.494400      0.246591      0.232794 
 H267  H     0.349792      0.114557      0.311242 
 H268  H    -0.322819     -0.115627     -0.245562 
 H269  H    -0.265377     -0.132811      0.064541 
 H270  H     0.239831      0.169678     -0.097212 
 H271  H    -0.372399      0.275458     -0.139923 
 H272  H     0.384217     -0.282061      0.191965 
 H273  H     0.279811      0.108195     -0.172544 
 H274  H    -0.265572     -0.096494      0.247662 
 H275  H     0.276851     -0.216596      0.101136 
 H276  H    -0.282402      0.220324     -0.070984 
 H277  H    -0.376844     -0.200734     -0.204189 
 H278  H     0.416303      0.205675      0.254030 
 C279  C     0.313911     -0.007097      0.030727 
 C280  C    -0.293338      0.002813      0.031652 
 C281  C    -0.484582     -0.197985      0.033441 
 C282  C    -0.488749      0.194029      0.034515 
 C283  C    -0.495047     -0.001475     -0.160651 
 C284  C    -0.493858     -0.001354      0.232072 
 C285  C     0.286404     -0.010104      0.077297 
 C286  C    -0.265231      0.002705     -0.014629 
 C287  C    -0.443862     -0.223333      0.008331 
 C288  C     0.465685      0.223053      0.031244 
 C289  C    -0.498766      0.045323     -0.187787 
 C290  C     0.494625     -0.046963      0.258811 
 C291  C     0.287943      0.003119     -0.015880 
 C292  C    -0.267949      0.002303      0.079646 
 C293  C     0.475729     -0.227533      0.055892 
 C294  C    -0.440126      0.218140      0.032830 
 C295  C    -0.485448     -0.047949     -0.187183 
 C296  C    -0.488106      0.045480      0.258895 
 C297  C    -0.351061      0.004132      0.029469 
 C298  C     0.371717     -0.005474      0.033296 
 C299  C    -0.492945      0.136718      0.039201 
 C300  C    -0.484717     -0.139912      0.034595 
 C301  C    -0.489881     -0.003575      0.174461 
 C302  C    -0.492712      0.000588     -0.102853 
 C303  C     0.339935      0.023905     -0.147117 
 C304  C    -0.328747     -0.018092      0.205970 
 C305  C     0.362160     -0.159748      0.054455 
 C306  C    -0.311899      0.160009      0.013030 
 C307  C    -0.457389     -0.178432     -0.137100 
 C308  C    -0.499918      0.171202      0.196761 
 C309  C     0.302091      0.103376      0.243191 
 C310  C    -0.265679     -0.110900     -0.184613 
 C311  C    -0.310695     -0.190690      0.105154 
 C312  C     0.302978      0.223759     -0.087759 
 C313  C    -0.382888      0.206378     -0.186403 
 C314  C     0.388973     -0.222618      0.250708 
 C315  C     0.327481      0.115802      0.147793 
 C316  C    -0.279087     -0.138183     -0.090445 
 C317  C    -0.397596     -0.180683      0.151870 
 C318  C     0.398460      0.205926     -0.107609 
 C319  C    -0.367869      0.111457     -0.160446 
 C320  C     0.367191     -0.126528      0.239382 
 C321  C     0.296616      0.024969     -0.107028 
 C322  C    -0.280756     -0.016316      0.171653 
 C323  C     0.385085     -0.212488      0.067230 
 C324  C    -0.348732      0.206022      0.015339 
 C325  C    -0.461435     -0.138624     -0.180463 
 C326  C    -0.499639      0.137522      0.245308 
 C327  C     0.344907      0.098774      0.202073 
 C328  C    -0.301908     -0.110062     -0.137557 
 C329  C    -0.348536     -0.153621      0.131981 
 C330  C     0.347948      0.185079     -0.084315 
 C331  C    -0.385353      0.165615     -0.143059 
 C332  C     0.388740     -0.175782      0.214083 
 C333  C     0.318597      0.088501      0.298469 
 C334  C    -0.289818     -0.090848     -0.235106 
 C335  C    -0.258697     -0.165835      0.090631 
 C336  C     0.250235      0.201817     -0.071277 
 C337  C    -0.398928      0.261439     -0.170167 
 C338  C     0.408047     -0.273346      0.226167 
 C339  C     0.323830      0.042807     -0.201239 
 C340  C    -0.319178     -0.033647      0.262554 
 C341  C     0.303389     -0.159383      0.045744 
 C342  C    -0.257145      0.173065     -0.006344 
 C343  C    -0.436900     -0.231679     -0.154209 
 C344  C     0.480668      0.226992      0.204492 
 H345  H     0.370906      0.113560      0.107427 
 H346  H    -0.317082     -0.142015     -0.045224 
 H347  H    -0.436218     -0.143491      0.177079 
 H348  H     0.441004      0.164849     -0.110539 
 H349  H    -0.368528      0.071387     -0.116677 
 H350  H     0.362294     -0.081009      0.201733 
 O351  O    -0.489499     -0.001352      0.035417 
 O352  O     0.317004      0.003491     -0.060208 
 O353  O    -0.298930      0.001482      0.122511 
 O354  O     0.437414     -0.203890      0.083352 
 O355  O    -0.397260      0.187065      0.034248 
 O356  O    -0.483723     -0.092707     -0.158823 
 O357  O    -0.477730      0.088834      0.230398 
 O358  O    -0.372785     -0.020548     -0.007021 
 O359  O     0.470353      0.115060      0.014796 
 O360  O     0.482790     -0.037494      0.151803 
 O361  O    -0.373999      0.030299      0.064025 
 O362  O    -0.460198      0.114236      0.067911 
 O363  O    -0.459197      0.027758      0.152519 
 O364  O     0.394927      0.021923     -0.000165 
 O365  O     0.480361     -0.117646      0.060947 
 O366  O    -0.467195     -0.034665     -0.080151 
 O367  O     0.393256     -0.030857      0.069480 
 O368  O    -0.449590     -0.116978      0.008913 
 O369  O     0.484390      0.038131     -0.080837 
 Zn370  Zn     0.061581     -0.453303      0.057352 
 Zn371  Zn     0.062240      0.459782     -0.028981 
 Zn372  Zn    -0.027852     -0.456360     -0.026279 
 Zn373  Zn    -0.021406      0.457246      0.060327 
 H374  H    -0.179914      0.480750      0.098585 
 H375  H     0.224618      0.495875     -0.067096 
 H376  H     0.100192      0.297467      0.002976 
 H377  H    -0.071055     -0.297285      0.013144 
 H378  H    -0.003814     -0.418004     -0.186012 
 H379  H     0.010449      0.416069      0.218353 
 H380  H    -0.120960     -0.466090     -0.145278 
 H381  H     0.147672      0.458519      0.173951 
 H382  H    -0.144824      0.367284      0.062181 
 H383  H     0.178873     -0.338698     -0.042105 
 H384  H     0.065484      0.341708     -0.119011 
 H385  H     0.002400     -0.343296      0.148801 
 H386  H    -0.137217      0.471503     -0.166841 
 H387  H     0.160004     -0.477185      0.191840 
 H388  H    -0.164828      0.351087     -0.000786 
 H389  H     0.195529     -0.348511      0.023126 
 H390  H     0.001680      0.322717     -0.132624 
 H391  H     0.063062     -0.322021      0.170406 
 H392  H    -0.218394     -0.423230      0.210106 
 H393  H     0.274370      0.402929     -0.184933 
 H394  H     0.212943      0.254114      0.105533 
 H395  H    -0.192577     -0.296344     -0.028159 
 H396  H     0.081894     -0.290910     -0.214136 
 H397  H    -0.085387      0.298511      0.282666 
 H398  H    -0.202346     -0.358347      0.222697 
 H399  H     0.251608      0.340124     -0.197511 
 H400  H     0.223974      0.273847      0.169587 
 H401  H    -0.225352     -0.324271     -0.080969 
 H402  H     0.144005     -0.275026     -0.191546 
 H403  H    -0.147284      0.285203      0.257862 
 H404  H    -0.167401     -0.347013      0.130950 
 H405  H     0.236455      0.318421     -0.107993 
 H406  H     0.129531      0.295403      0.181143 
 H407  H    -0.149180     -0.305193     -0.142074 
 H408  H     0.162025     -0.368531     -0.168179 
 H409  H    -0.166606      0.376436      0.235165 
 H410  H    -0.182889     -0.411764      0.116451 
 H411  H     0.259078      0.378441     -0.085157 
 H412  H     0.115425      0.277755      0.116916 
 H413  H    -0.115887     -0.275214     -0.090714 
 H414  H     0.100209     -0.386876     -0.190083 
 H415  H    -0.107353      0.396482      0.262224 
 H416  H    -0.212547     -0.452523     -0.114094 
 H417  H     0.241829      0.445993      0.151481 
 H418  H    -0.112338      0.277352      0.076703 
 H419  H     0.152385     -0.246123     -0.019880 
 H420  H     0.078587      0.370255     -0.210349 
 H421  H    -0.020771     -0.370979      0.239517 
 H422  H    -0.229136      0.484427     -0.136575 
 H423  H     0.254849     -0.489288      0.171790 
 H424  H    -0.135982      0.258635      0.014401 
 H425  H     0.161822     -0.262111      0.046943 
 H426  H     0.016014      0.346177     -0.227483 
 H427  H     0.040331     -0.347757      0.261698 
 H428  H    -0.108666     -0.377955      0.202811 
 H429  H     0.164925      0.366524     -0.156693 
 H430  H     0.191903      0.363498      0.147208 
 H431  H    -0.152160     -0.388375     -0.091593 
 H432  H     0.119987     -0.308525     -0.102934 
 H433  H    -0.117443      0.321464      0.170559 
 H434  H    -0.125444     -0.442210      0.187974 
 H435  H     0.193846      0.425079     -0.137822 
 H436  H     0.178589      0.342589      0.083814 
 H437  H    -0.119208     -0.358690     -0.040321 
 H438  H     0.058863     -0.326807     -0.126651 
 H439  H    -0.059188      0.340220      0.200064 
 H440  H    -0.120499     -0.473514      0.267969 
 H441  H     0.167756      0.462400     -0.219893 
 H442  H     0.260851      0.359384      0.052728 
 H443  H    -0.281966     -0.383972      0.045064 
 H444  H     0.019349     -0.248306     -0.113723 
 H445  H    -0.025472      0.259068      0.175856 
 H446  H    -0.198505     -0.491455     -0.231751 
 H447  H     0.216139      0.492747      0.264827 
 H448  H    -0.230175      0.289035      0.034584 
 H449  H     0.242752     -0.263348     -0.045216 
 H450  H     0.033337      0.252583     -0.190828 
 H451  H     0.021566     -0.254034      0.224894 
 H452  H    -0.145866     -0.384770      0.296057 
 H453  H     0.181766      0.374518     -0.253836 
 H454  H     0.290043      0.337379      0.140940 
 H455  H    -0.193081     -0.387604      0.014045 
 H456  H     0.106791     -0.212012     -0.128760 
 H457  H    -0.111891      0.223950      0.194078 
 H458  H    -0.214805     -0.405332     -0.181889 
 H459  H     0.238277      0.402891      0.227461 
 H460  H    -0.182854      0.273386      0.121777 
 H461  H     0.266892     -0.352452     -0.077187 
 H462  H     0.121564      0.294696     -0.212542 
 H463  H    -0.066565     -0.297730      0.237004 
 C464  C    -0.176610      0.484719      0.015429 
 C465  C     0.214672     -0.498990      0.015968 
 C466  C     0.017081      0.305571      0.008252 
 C467  C     0.012465     -0.301943      0.012833 
 C468  C     0.006980      0.499268     -0.180074 
 C469  C     0.027036      0.498324      0.212096 
 C470  C    -0.202329      0.484287      0.062878 
 C471  C     0.243848      0.496954     -0.029437 
 C472  C     0.063407      0.277573      0.009157 
 C473  C    -0.034781     -0.275752      0.016099 
 C474  C     0.003016     -0.454029     -0.207084 
 C475  C     0.016212      0.452485      0.239013 
 C476  C    -0.204584      0.489770     -0.030789 
 C477  C     0.238962     -0.499097      0.064569 
 C478  C    -0.030265      0.280398      0.016899 
 C479  C     0.059344     -0.274720      0.015023 
 C480  C     0.016160      0.452808     -0.206481 
 C481  C     0.033131     -0.454937      0.239146 
 C482  C     0.157169     -0.494772      0.011734 
 C483  C    -0.119339      0.492258      0.017162 
 C484  C     0.011905     -0.359617      0.015833 
 C485  C     0.020348      0.363225      0.011548 
 C486  C     0.025789      0.497694      0.154201 
 C487  C     0.011300     -0.498253     -0.122527 
 C488  C    -0.152937     -0.489235     -0.161454 
 C489  C     0.177285      0.483811      0.191236 
 C490  C    -0.160385      0.335350      0.038588 
 C491  C     0.192730     -0.318666     -0.007229 
 C492  C     0.040758      0.325068     -0.149524 
 C493  C     0.022318     -0.326106      0.182317 
 C494  C    -0.187100     -0.398096      0.224362 
 C495  C     0.239040      0.380603     -0.193129 
 C496  C     0.223324      0.287854      0.129352 
 C497  C    -0.198334     -0.332843     -0.049171 
 C498  C     0.103340     -0.278771     -0.179402 
 C499  C    -0.106268      0.288676      0.246857 
 C500  C    -0.152017     -0.386725      0.131760 
 C501  C     0.224027      0.357860     -0.097955 
 C502  C     0.127209      0.310560      0.141400 
 C503  C    -0.122018     -0.312628     -0.110118 
 C504  C     0.121625     -0.373682     -0.155709 
 C505  C    -0.125688      0.383727      0.225928 
 C506  C    -0.197152     -0.491321     -0.122389 
 C507  C     0.224858      0.484781      0.156281 
 C508  C    -0.121143      0.291245      0.037392 
 C509  C     0.153117     -0.278033      0.008390 
 C510  C     0.039464      0.361961     -0.195622 
 C511  C     0.019522     -0.363350      0.227971 
 C512  C    -0.140232     -0.402286      0.187893 
 C513  C     0.202261      0.384245     -0.146573 
 C514  C     0.180978      0.329387      0.124241 
 C515  C    -0.146582     -0.351012     -0.072012 
 C516  C     0.099555     -0.321345     -0.137984 
 C517  C    -0.100456      0.333102      0.207790 
 C518  C    -0.175346     -0.411664      0.281172 
 C519  C     0.215785      0.398527     -0.244853 
 C520  C     0.278190      0.305921      0.114759 
 C521  C    -0.222750     -0.372893     -0.012700 
 C522  C     0.083759     -0.225261     -0.162061 
 C523  C    -0.087575      0.235840      0.226957 
 C524  C    -0.168144     -0.467133     -0.214573 
 C525  C     0.187442      0.466687      0.247340 
 C526  C    -0.214097      0.319750      0.059258 
 C527  C     0.246548     -0.296272     -0.018433 
 C528  C     0.059309      0.269927     -0.161975 
 C529  C     0.000019     -0.271922      0.192891 
 H530  H    -0.104487     -0.390186      0.096452 
 H531  H     0.185127      0.355203     -0.053357 
 H532  H     0.085672      0.352851      0.138970 
 H533  H    -0.070501     -0.332153     -0.131997 
 H534  H     0.119217     -0.415655     -0.113833 
 H535  H    -0.121994      0.426961      0.185606 
 O536  O     0.018603     -0.498152      0.015402 
 O537  O    -0.176651      0.487147     -0.075704 
 O538  O     0.207525     -0.496540      0.107089 
 O539  O    -0.074333      0.309859      0.014269 
 O540  O     0.103771     -0.303092      0.009819 
 O541  O     0.016653      0.408819     -0.177024 
 O542  O     0.043122     -0.410823      0.211711 
 O543  O     0.135428      0.480042     -0.024442 
 O544  O    -0.024155     -0.382796     -0.008154 
 O545  O     0.000514      0.461389      0.132846 
 O546  O     0.134481     -0.465752      0.044101 
 O547  O     0.046728     -0.381001      0.042977 
 O548  O     0.050126     -0.466879      0.130569 
 O549  O    -0.098974     -0.479709     -0.017602 
 O550  O    -0.012855      0.385628      0.039872 
 O551  O     0.040389      0.468849     -0.100508 
 O552  O    -0.095652      0.471168      0.054735 
 O553  O     0.056778      0.385332     -0.013039 
 O554  O    -0.013633     -0.462293     -0.100212 
 Zn555  Zn     0.476271      0.453302     -0.020867 
 Zn556  Zn     0.474536     -0.461744      0.066364 
 Zn557  Zn    -0.436618      0.453291      0.065059 
 Zn558  Zn    -0.438299     -0.459577     -0.021473 
 H559  H     0.312210      0.499735      0.105344 
 H560  H    -0.280498     -0.499723     -0.064946 
 H561  H    -0.399587      0.291501      0.029650 
 H562  H     0.445644     -0.303370      0.071356 
 H563  H    -0.458823     -0.424264     -0.180919 
 H564  H    -0.467907      0.413153      0.225015 
 H565  H     0.388343     -0.465158     -0.136715 
 H566  H    -0.332955      0.444099      0.183093 
 H567  H     0.356266      0.365837      0.067321 
 H568  H    -0.302503     -0.303038     -0.039579 
 H569  H    -0.449492      0.340201     -0.111868 
 H570  H     0.463452     -0.341872      0.161609 
 H571  H     0.376143      0.470332     -0.153996 
 H572  H    -0.307827     -0.499618      0.212461 
 H573  H     0.339320      0.353550      0.002786 
 H574  H    -0.327301     -0.366779     -0.039606 
 H575  H     0.486934      0.319838     -0.123854 
 H576  H    -0.473960     -0.322083      0.179355 
 H577  H     0.250521     -0.415041      0.223020 
 H578  H    -0.241998      0.408662     -0.179905 
 H579  H    -0.273610      0.242969      0.111542 
 H580  H     0.353950     -0.295304     -0.020275 
 H581  H    -0.388652     -0.293204     -0.230579 
 H582  H     0.430121      0.298553      0.271572 
 H583  H     0.268132     -0.350915      0.236836 
 H584  H    -0.264836      0.346067     -0.192872 
 H585  H    -0.258200      0.262579      0.174698 
 H586  H     0.331557     -0.280459     -0.082880 
 H587  H    -0.324444     -0.276244     -0.216359 
 H588  H     0.366807      0.285427      0.250819 
 H589  H     0.288512     -0.325488      0.148907 
 H590  H    -0.287526      0.332393     -0.098881 
 H591  H    -0.347690      0.275171      0.201059 
 H592  H     0.419497     -0.295835     -0.123019 
 H593  H    -0.301890     -0.369783     -0.204769 
 H594  H     0.355142      0.380432      0.228000 
 H595  H     0.268667     -0.385996      0.124641 
 H596  H    -0.266183      0.395011     -0.082939 
 H597  H    -0.372231      0.255775      0.140573 
 H598  H     0.444530     -0.306999     -0.060670 
 H599  H    -0.365808     -0.390510     -0.215177 
 H600  H     0.419216      0.394454      0.246173 
 H601  H     0.293641     -0.453065     -0.114608 
 H602  H    -0.243509      0.428922      0.142501 
 H603  H     0.379149      0.270750      0.078866 
 H604  H    -0.349575     -0.285740      0.044278 
 H605  H    -0.437702      0.362065     -0.206017 
 H606  H     0.447455     -0.377115      0.249891 
 H607  H     0.281795      0.481336     -0.133091 
 H608  H    -0.225181      0.490944      0.167141 
 H609  H     0.362824      0.260244      0.012550 
 H610  H    -0.375791     -0.349230      0.041533 
 H611  H     0.498519      0.339170     -0.219212 
 H612  H    -0.491322     -0.352839      0.271249 
 H613  H     0.358697     -0.371277      0.200819 
 H614  H    -0.353403      0.371727     -0.160228 
 H615  H    -0.301178      0.349678      0.155953 
 H616  H     0.358117     -0.370652     -0.111627 
 H617  H    -0.332631     -0.316480     -0.128342 
 H618  H     0.389057      0.316784      0.161442 
 H619  H     0.334208     -0.430907      0.179284 
 H620  H    -0.329453      0.433579     -0.144872 
 H621  H    -0.322050      0.324833      0.096195 
 H622  H     0.383388     -0.382027     -0.049336 
 H623  H    -0.396625     -0.335141     -0.142365 
 H624  H     0.452562      0.330529      0.181843 
 H625  H     0.361150     -0.465239      0.262543 
 H626  H    -0.344514      0.467916     -0.226221 
 H627  H    -0.240522      0.352948      0.055252 
 H628  H     0.263027     -0.280601      0.017590 
 H629  H    -0.439196     -0.258309     -0.121027 
 H630  H     0.486006      0.248088      0.167857 
 H631  H     0.318548     -0.499975     -0.226350 
 H632  H    -0.267708      0.389403      0.227587 
 H633  H     0.267667      0.294974      0.032112 
 H634  H    -0.255974     -0.321052      0.044009 
 H635  H    -0.481245      0.246815     -0.178084 
 H636  H     0.489135     -0.258472      0.242475 
 H637  H     0.336397     -0.379507      0.296796 
 H638  H    -0.326638      0.379539     -0.257924 
 H639  H    -0.204294      0.334896      0.141039 
 H640  H     0.289278     -0.368510     -0.014904 
 H641  H    -0.354623     -0.220439     -0.143033 
 H642  H     0.398566      0.218465      0.189595 
 H643  H     0.296575     -0.410272     -0.190383 
 H644  H    -0.348411      0.410255      0.278406 
 H645  H     0.305029      0.273727      0.122186 
 H646  H    -0.235279     -0.406277     -0.035802 
 H647  H    -0.393363      0.287202     -0.203596 
 H648  H     0.400771     -0.304811      0.253801 
 C649  C     0.322263      0.494743      0.022223 
 C650  C    -0.284097      0.496700      0.018761 
 C651  C    -0.482720      0.301137      0.026522 
 C652  C    -0.482344     -0.306955      0.028013 
 C653  C    -0.478539      0.494386     -0.174374 
 C654  C    -0.477694      0.496251      0.219079 
 C655  C     0.293048      0.498558      0.067670 
 C656  C    -0.258508      0.496251     -0.029048 
 C657  C    -0.437182      0.272113      0.029715 
 C658  C     0.476821     -0.281606      0.052998 
 C659  C    -0.467581     -0.460121     -0.201540 
 C660  C    -0.475908      0.449101      0.245766 
 C661  C     0.297884      0.494386     -0.026320 
 C662  C    -0.256083      0.490359      0.064778 
 C663  C     0.468644      0.277020      0.027810 
 C664  C    -0.441921     -0.277361      0.006858 
 C665  C    -0.487500      0.447941     -0.201046 
 C666  C    -0.488883     -0.457653      0.245633 
 C667  C     0.379966      0.492720      0.025873 
 C668  C    -0.341914      0.498188      0.019604 
 C669  C    -0.478383      0.358406      0.021414 
 C670  C    -0.483932     -0.364892      0.024415 
 C671  C    -0.481024      0.496952     -0.116715 
 C672  C    -0.478460      0.494808      0.161173 
 C673  C     0.358671     -0.490750     -0.153523 
 C674  C    -0.297066      0.461805      0.197870 
 C675  C     0.340024      0.335981      0.041656 
 C676  C    -0.314830     -0.334932     -0.014168 
 C677  C    -0.474148      0.321621     -0.141231 
 C678  C     0.486402     -0.326923      0.194287 
 C679  C     0.283761     -0.390360      0.232961 
 C680  C    -0.276864      0.386899     -0.190989 
 C681  C    -0.264669      0.277222      0.135209 
 C682  C     0.337046     -0.312469     -0.055305 
 C683  C    -0.362669     -0.282492     -0.198602 
 C684  C     0.407291      0.286772      0.237605 
 C685  C     0.302495     -0.364528      0.139165 
 C686  C    -0.300380      0.372849     -0.095326 
 C687  C    -0.359130      0.289741      0.162718 
 C688  C     0.427083     -0.326394     -0.094328 
 C689  C    -0.338628     -0.377863     -0.184926 
 C690  C     0.395046      0.382430      0.213226 
 C691  C     0.311288     -0.491664     -0.118408 
 C692  C    -0.258139      0.467214      0.154275 
 C693  C     0.376166      0.289335      0.040650 
 C694  C    -0.360708     -0.317181      0.017824 
 C695  C    -0.476375      0.355960     -0.189190 
 C696  C     0.486969     -0.367130      0.237486 
 C697  C     0.323024     -0.390821      0.188364 
 C698  C    -0.318230      0.392649     -0.148535 
 C699  C    -0.311675      0.313638      0.135972 
 C700  C     0.375690     -0.351405     -0.077997 
 C701  C    -0.358637     -0.327681     -0.160130 
 C702  C     0.412188      0.328343      0.195243 
 C703  C     0.305756     -0.406825      0.285693 
 C704  C    -0.294053      0.403960     -0.245417 
 C705  C    -0.213969      0.301802      0.116046 
 C706  C     0.284135     -0.335940     -0.041896 
 C707  C    -0.380972     -0.231148     -0.174736 
 C708  C     0.423703      0.231848      0.221285 
 C709  C     0.347790     -0.474030     -0.209545 
 C710  C    -0.275312      0.428736      0.242044 
 C711  C     0.284120      0.324136      0.058335 
 C712  C    -0.268912     -0.352947      0.018923 
 C713  C    -0.455034      0.266032     -0.150667 
 C714  C     0.465492     -0.273550      0.210478 
 H715  H     0.343268     -0.360390      0.096425 
 H716  H    -0.342383      0.376433     -0.053551 
 H717  H    -0.404109      0.327820      0.169089 
 H718  H     0.465746     -0.365258     -0.116752 
 H719  H    -0.330589     -0.421795     -0.145930 
 H720  H     0.398120      0.423599      0.170590 
 O721  O    -0.480704      0.496816      0.022561 
 O722  O     0.329188      0.491399     -0.068866 
 O723  O    -0.282193      0.491524      0.110802 
 O724  O     0.425999      0.308354      0.025679 
 O725  O    -0.400049     -0.298897     -0.016819 
 O726  O    -0.497397      0.404485     -0.172612 
 O727  O    -0.488596     -0.412691      0.217529 
 O728  O     0.401277     -0.482180      0.062357 
 O729  O    -0.441507      0.380223      0.045433 
 O730  O    -0.454187     -0.468155     -0.094948 
 O731  O     0.403399      0.465581     -0.007562 
 O732  O     0.488733      0.380723     -0.007242 
 O733  O     0.489855      0.464856     -0.093813 
 O734  O    -0.364467      0.472450      0.054814 
 O735  O    -0.450541     -0.387085     -0.003938 
 O736  O     0.494702     -0.471047      0.138265 
 O737  O    -0.364152     -0.475381     -0.015366 
 O738  O     0.481016     -0.387732      0.050258 
 O739  O    -0.453053      0.458867      0.139218 
 Zn740  Zn     0.047711      0.045414     -0.427188 
 Zn741  Zn     0.049445     -0.039540      0.485581 
 Zn742  Zn    -0.039400      0.045425      0.486886 
 Zn743  Zn    -0.037719     -0.041707     -0.426582 
 H744  H    -0.195520     -0.001561     -0.383109 
 H745  H     0.211772     -0.001020      0.446602 
 H746  H     0.078338     -0.197914      0.480589 
 H747  H    -0.076431      0.207214     -0.477705 
 H748  H    -0.008111      0.085563      0.326930 
 H749  H    -0.017196     -0.077021     -0.267135 
 H750  H    -0.143063      0.054617      0.368852 
 H751  H     0.135639     -0.036126     -0.311339 
 H752  H    -0.173515     -0.198247     -0.408475 
 H753  H     0.167716      0.132879      0.484624 
 H754  H     0.060530     -0.159412      0.390337 
 H755  H    -0.026526      0.158515     -0.336186 
 H756  H    -0.168192     -0.001666      0.339485 
 H757  H     0.147839      0.028384     -0.294059 
 H758  H    -0.148717     -0.134505     -0.408448 
 H759  H     0.184662      0.145166     -0.450841 
 H760  H    -0.002059     -0.179201      0.372591 
 H761  H     0.037048      0.178878     -0.324200 
 H762  H    -0.234020      0.090054     -0.268150 
 H763  H     0.273461     -0.086243      0.328925 
 H764  H     0.170032     -0.205980     -0.427780 
 H765  H    -0.202408      0.255747      0.440404 
 H766  H     0.093861      0.200163      0.280373 
 H767  H    -0.087367     -0.208080     -0.217475 
 H768  H    -0.211182      0.152649     -0.255182 
 H769  H     0.255850     -0.150370      0.315109 
 H770  H     0.192425     -0.220825     -0.365175 
 H771  H    -0.217818      0.236137      0.377247 
 H772  H     0.157175      0.213289      0.301127 
 H773  H    -0.151574     -0.225041     -0.231695 
 H774  H    -0.188492      0.166323     -0.349174 
 H775  H     0.235470     -0.175796      0.403038 
 H776  H     0.104485     -0.205449     -0.325035 
 H777  H    -0.128329      0.223545      0.350887 
 H778  H     0.168840      0.118284      0.323945 
 H779  H    -0.174128     -0.131501     -0.243285 
 H780  H    -0.209835      0.103705     -0.365115 
 H781  H     0.255315     -0.115288      0.427305 
 H782  H     0.079452     -0.194285     -0.387384 
 H783  H    -0.103787      0.242941      0.411372 
 H784  H     0.104766      0.104262      0.305772 
 H785  H    -0.110210     -0.110774     -0.232877 
 H786  H    -0.232509      0.069794      0.409444 
 H787  H     0.230341     -0.048219     -0.333447 
 H788  H    -0.126443     -0.215544     -0.492333 
 H789  H     0.144832      0.227966      0.473080 
 H790  H     0.076527     -0.124169      0.302054 
 H791  H    -0.038316      0.136651     -0.242038 
 H792  H    -0.250837      0.007771      0.384804 
 H793  H     0.242187      0.017380     -0.314963 
 H794  H    -0.100227     -0.152054     -0.489588 
 H795  H     0.161158      0.238472     -0.460605 
 H796  H     0.015304     -0.148445      0.280696 
 H797  H     0.025463      0.159546     -0.228842 
 H798  H    -0.122615      0.126989     -0.287826 
 H799  H     0.165285     -0.130008      0.351127 
 H800  H     0.165865     -0.130632     -0.336427 
 H801  H    -0.174840      0.149038      0.395992 
 H802  H     0.134924      0.181932      0.390503 
 H803  H    -0.143387     -0.184804     -0.319713 
 H804  H    -0.146565      0.065136     -0.303183 
 H805  H     0.189774     -0.070378      0.372661 
 H806  H     0.140594     -0.119257     -0.398719 
 H807  H    -0.153968      0.173883      0.455751 
 H808  H     0.071419      0.168187      0.370103 
 H809  H    -0.079393     -0.166143     -0.305689 
 H810  H    -0.131505      0.030800     -0.221833 
 H811  H     0.162832     -0.036045      0.289403 
 H812  H     0.260955     -0.220683     -0.465644 
 H813  H    -0.235496      0.145768      0.496694 
 H814  H     0.037975      0.250627      0.384088 
 H815  H    -0.036822     -0.242975     -0.327028 
 H816  H    -0.208310      0.109313      0.324358 
 H817  H     0.205434     -0.001309     -0.221704 
 H818  H    -0.220044     -0.180232     -0.492063 
 H819  H     0.256315      0.203742     -0.480166 
 H820  H     0.034847     -0.242812      0.309471 
 H821  H     0.005227      0.251901     -0.269970 
 H822  H    -0.149380      0.119177     -0.190131 
 H823  H     0.187584     -0.121778      0.255149 
 H824  H     0.234703     -0.132774     -0.433151 
 H825  H    -0.271724      0.163820      0.410907 
 H826  H     0.125416      0.280251      0.362351 
 H827  H    -0.121395     -0.280846     -0.305022 
 H828  H    -0.127607      0.088460      0.273539 
 H829  H     0.227406     -0.091013     -0.257671 
 H830  H    -0.240739     -0.095007     -0.412253 
 H831  H     0.218953      0.224989      0.429759 
 H832  H     0.123211     -0.196473      0.298144 
 H833  H    -0.082655      0.211514     -0.244459 
 C834  C    -0.191921      0.002016     -0.466815 
 C835  C     0.201719      0.003973     -0.470278 
 C836  C     0.006326     -0.194329     -0.476067 
 C837  C     0.006702      0.197578     -0.474577 
 C838  C     0.001676      0.002465      0.332867 
 C839  C     0.002521      0.004330     -0.273680 
 C840  C    -0.217510      0.002465     -0.419007 
 C841  C     0.230934      0.000158      0.484276 
 C842  C     0.047161     -0.219679      0.498947 
 C843  C    -0.038836      0.226603     -0.477770 
 C844  C    -0.000111      0.049615      0.306180 
 C845  C    -0.008437     -0.041163     -0.246514 
 C846  C    -0.219936      0.008357      0.487167 
 C847  C     0.226098      0.004330     -0.421734 
 C848  C    -0.034097     -0.223923     -0.454912 
 C849  C     0.055338      0.221696     -0.475864 
 C850  C     0.012865     -0.043631      0.306313 
 C851  C     0.011482      0.050775     -0.247008 
 C852  C     0.144016      0.005996     -0.473928 
 C853  C    -0.134104      0.000527     -0.467659 
 C854  C     0.002365      0.140310     -0.469469 
 C855  C     0.007914     -0.136392     -0.472470 
 C856  C     0.005006      0.001763     -0.331340 
 C857  C     0.002442      0.003908      0.390773 
 C858  C    -0.178952      0.036911      0.354076 
 C859  C     0.165311     -0.010534     -0.294532 
 C860  C    -0.161188     -0.166353     -0.433887 
 C861  C     0.183958      0.162735     -0.489710 
 C862  C     0.037580     -0.174361      0.357659 
 C863  C    -0.001871      0.177095     -0.306823 
 C864  C    -0.199154      0.111817     -0.257065 
 C865  C     0.240221     -0.110924      0.318985 
 C866  C     0.186936     -0.188815     -0.392750 
 C867  C    -0.211349      0.221494      0.416736 
 C868  C     0.116691      0.211944      0.314341 
 C869  C    -0.113349     -0.218792     -0.249453 
 C870  C    -0.175638      0.125867     -0.352729 
 C871  C     0.221486     -0.136756      0.412781 
 C872  C     0.096899     -0.174891     -0.353727 
 C873  C    -0.116888      0.208975      0.389228 
 C874  C     0.128936      0.116285      0.338720 
 C875  C    -0.137390     -0.123421     -0.263129 
 C876  C    -0.217879      0.031502      0.397670 
 C877  C     0.212693     -0.009621     -0.329647 
 C878  C    -0.115310     -0.184103     -0.465879 
 C879  C     0.147816      0.209381     -0.488704 
 C880  C     0.037013     -0.134154      0.314460 
 C881  C     0.000357      0.142756     -0.258864 
 C882  C    -0.157788      0.106067     -0.299519 
 C883  C     0.200958     -0.110463      0.363582 
 C884  C     0.148292     -0.149879     -0.370058 
 C885  C    -0.164343      0.185078      0.415974 
 C886  C     0.111794      0.170372      0.356703 
 C887  C    -0.117382     -0.173604     -0.287924 
 C888  C    -0.181965      0.094756     -0.202637 
 C889  C     0.218225     -0.094459      0.266252 
 C890  C     0.239847     -0.165344     -0.406159 
 C891  C    -0.262049      0.196914      0.435899 
 C892  C     0.100279      0.266868      0.330660 
 C893  C    -0.095046     -0.270137     -0.273319 
 C894  C    -0.200706      0.069980      0.309901 
 C895  C     0.176192     -0.027254     -0.238510 
 C896  C    -0.207106     -0.148337     -0.466977 
 C897  C     0.239862      0.174579      0.493611 
 C898  C     0.058490     -0.227735      0.341467 
 C899  C    -0.020984      0.232684     -0.297388 
 H900  H    -0.133635      0.122283     -0.394503 
 H901  H     0.180714     -0.140894      0.455521 
 H902  H     0.058236     -0.136027     -0.331303 
 H903  H    -0.071910      0.170896      0.382857 
 H904  H     0.125862      0.075117      0.381355 
 H905  H    -0.145429     -0.079489     -0.302124 
 O906  O     0.004686      0.001899     -0.470615 
 O907  O    -0.193825      0.007192      0.441143 
 O908  O     0.194794      0.007316     -0.379188 
 O909  O    -0.075969     -0.202387     -0.431236 
 O910  O     0.097983      0.190362     -0.473734 
 O911  O     0.012578     -0.088593      0.334417 
 O912  O     0.021379      0.094230     -0.275442 
 O913  O     0.122704     -0.019104      0.489589 
 O914  O    -0.034511      0.118493     -0.493487 
 O915  O    -0.021831     -0.033129     -0.353106 
 O916  O     0.120583      0.033135     -0.440492 
 O917  O     0.035249      0.117992     -0.440813 
 O918  O     0.034127      0.033859     -0.354241 
 O919  O    -0.111551      0.026266      0.497132 
 O920  O    -0.025477     -0.114199     -0.444117 
 O921  O     0.029280     -0.030237      0.413680 
 O922  O    -0.111866     -0.025903     -0.432688 
 O923  O     0.042966     -0.113552     -0.498313 
 O924  O    -0.022965      0.039849      0.412728 
 Zn925  Zn     0.462401     -0.047981      0.494593 
 Zn926  Zn     0.461741      0.038934     -0.419073 
 Zn927  Zn    -0.448166     -0.044924     -0.421775 
 Zn928  Zn    -0.454612      0.041470      0.491619 
 H929  H     0.299363      0.002841     -0.380959 
 H930  H    -0.296104      0.017966      0.453361 
 H931  H    -0.404964     -0.203999     -0.461199 
 H932  H     0.423790      0.201249     -0.451031 
 H933  H    -0.486467      0.082647      0.333592 
 H934  H    -0.472204     -0.083281     -0.262043 
 H935  H     0.376310      0.040197      0.377995 
 H936  H    -0.355058     -0.035194     -0.302777 
 H937  H     0.345109     -0.162586     -0.405949 
 H938  H    -0.331194      0.131432      0.489765 
 H939  H    -0.478418     -0.157988      0.403145 
 H940  H     0.458497      0.157008     -0.329044 
 H941  H     0.363977     -0.024099      0.360106 
 H942  H    -0.338801      0.027213     -0.281213 
 H943  H     0.328453     -0.152773     -0.471181 
 H944  H    -0.311190      0.147628     -0.447268 
 H945  H     0.460920     -0.179264      0.381539 
 H946  H    -0.477698      0.175998     -0.315431 
 H947  H     0.249612      0.095786     -0.263122 
 H948  H    -0.257624     -0.078055      0.341840 
 H949  H    -0.283441     -0.204941     -0.419896 
 H950  H     0.311039      0.244602      0.446413 
 H951  H    -0.390631      0.200204      0.269280 
 H952  H     0.442088     -0.210374     -0.233919 
 H953  H     0.272374      0.158592     -0.250543 
 H954  H    -0.273672     -0.142937      0.329249 
 H955  H    -0.250666     -0.177013     -0.367085 
 H956  H     0.300008      0.224869      0.382359 
 H957  H    -0.328734      0.213513      0.294083 
 H958  H     0.379976     -0.226258     -0.256509 
 H959  H     0.287527      0.180295     -0.340061 
 H960  H    -0.308617     -0.154271      0.420996 
 H961  H    -0.326838     -0.196091     -0.305980 
 H962  H     0.394451      0.203313      0.370803 
 H963  H    -0.309412      0.122280      0.316780 
 H964  H     0.361957     -0.132753     -0.279876 
 H965  H     0.264903      0.120275     -0.362897 
 H966  H    -0.293129     -0.089520      0.435495 
 H967  H    -0.360131     -0.226070     -0.357341 
 H968  H     0.408556      0.220961      0.435030 
 H969  H    -0.368665      0.102234      0.289722 
 H970  H     0.423773     -0.114408     -0.257971 
 H971  H     0.282153      0.052723      0.400465 
 H972  H    -0.263471     -0.048762     -0.333961 
 H973  H     0.371597     -0.255161     -0.428175 
 H974  H    -0.363680      0.221364      0.475242 
 H975  H    -0.455247     -0.130305      0.312428 
 H976  H     0.445395      0.128461     -0.237706 
 H977  H     0.269133     -0.011996      0.380156 
 H978  H    -0.246882      0.014288     -0.311480 
 H979  H     0.362160     -0.239173     -0.494997 
 H980  H    -0.340036      0.240081     -0.462456 
 H981  H     0.483651     -0.153527      0.290248 
 H982  H    -0.492032      0.152539     -0.220571 
 H983  H     0.359057      0.132191     -0.291362 
 H984  H    -0.367352     -0.123329      0.349134 
 H985  H    -0.323858     -0.112909     -0.356462 
 H986  H     0.332079      0.135217      0.404738 
 H987  H    -0.358575      0.177252      0.381386 
 H988  H     0.403995     -0.192759     -0.345121 
 H989  H     0.330136      0.073637     -0.310232 
 H990  H    -0.350574     -0.059074      0.363971 
 H991  H    -0.356810     -0.142595     -0.407733 
 H992  H     0.345393      0.156127      0.468131 
 H993  H    -0.416830      0.158495      0.351882 
 H994  H     0.465119     -0.174477     -0.321403 
 H995  H     0.356226      0.036315     -0.228161 
 H996  H    -0.355519     -0.027771      0.283976 
 H997  H    -0.194052     -0.117312     -0.493119 
 H998  H     0.263131      0.139332      0.499218 
 H999  H    -0.450546      0.239648      0.376089 
 H1000  H    -0.495368     -0.252979     -0.334331 
 H1001  H     0.307843      0.005969      0.287119 
 H1002  H    -0.277513     -0.009829     -0.216304 
 H1003  H     0.281230     -0.237936     -0.402839 
 H1004  H    -0.245843      0.209681     -0.482639 
 H1005  H    -0.497584     -0.247250      0.327051 
 H1006  H     0.490645      0.246133     -0.257227 
 H1007  H     0.342215      0.124198     -0.194218 
 H1008  H    -0.330152     -0.116515      0.255888 
 H1009  H    -0.282937     -0.113681     -0.462099 
 H1010  H     0.233939      0.161336      0.411006 
 H1011  H    -0.364127      0.274766      0.357868 
 H1012  H     0.417191     -0.289272     -0.319294 
 H1013  H     0.285705      0.095825      0.324485 
 H1014  H    -0.261213     -0.095953     -0.266165 
 H1015  H     0.257090     -0.148832     -0.370867 
 H1016  H    -0.293164      0.225330      0.430169 
 H1017  H    -0.409453     -0.203554      0.314942 
 H1018  H     0.402418      0.204020     -0.235512 
 C1019  C     0.309310     -0.002295     -0.464022 
 C1020  C    -0.299408      0.013997     -0.463483 
 C1021  C    -0.488483     -0.199341     -0.460887 
 C1022  C    -0.493100      0.193145     -0.456306 
 C1023  C     0.496946      0.000392      0.339850 
 C1024  C    -0.482998     -0.000552     -0.267981 
 C1025  C     0.280134      0.001762     -0.418617 
 C1026  C    -0.273689      0.014428      0.489068 
 C1027  C    -0.441237     -0.225532     -0.464153 
 C1028  C     0.460575      0.221143     -0.457211 
 C1029  C    -0.492230      0.046231      0.312933 
 C1030  C    -0.479034     -0.047255     -0.240971 
 C1031  C     0.285020     -0.002187      0.487376 
 C1032  C    -0.271434      0.008946     -0.417266 
 C1033  C     0.464638     -0.226564     -0.463077 
 C1034  C    -0.445753      0.218318     -0.464953 
 C1035  C     0.490851     -0.046347      0.312799 
 C1036  C    -0.492178      0.045908     -0.241573 
 C1037  C     0.366813     -0.006512     -0.459789 
 C1038  C    -0.356679      0.006458     -0.465216 
 C1039  C    -0.487923     -0.141667     -0.463888 
 C1040  C    -0.496366      0.135491     -0.459603 
 C1041  C     0.498193      0.001022      0.397745 
 C1042  C    -0.487318     -0.003031     -0.325527 
 C1043  C     0.346697      0.014905      0.360710 
 C1044  C    -0.323081     -0.012049     -0.286601 
 C1045  C     0.331252     -0.182618     -0.440826 
 C1046  C    -0.315633      0.163366     -0.486642 
 C1047  C    -0.498336     -0.175178      0.369628 
 C1048  C     0.483224      0.173648     -0.298530 
 C1049  C     0.284942      0.118113     -0.254925 
 C1050  C    -0.288918     -0.103188      0.327583 
 C1051  C    -0.277684     -0.168441     -0.398883 
 C1052  C     0.300658      0.210862      0.422593 
 C1053  C    -0.369751      0.210040      0.305089 
 C1054  C     0.420642     -0.222514     -0.268653 
 C1055  C     0.299955      0.140856     -0.350099 
 C1056  C    -0.324001     -0.114559      0.420185 
 C1057  C    -0.354001     -0.188656     -0.337937 
 C1058  C     0.396772      0.188156      0.410546 
 C1059  C    -0.350330      0.114989      0.326018 
 C1060  C     0.402357     -0.127603     -0.292345 
 C1061  C     0.299124      0.013934      0.395665 
 C1062  C    -0.278867     -0.009963     -0.325666 
 C1063  C     0.370865     -0.223251     -0.456445 
 C1064  C    -0.354875      0.207471     -0.485447 
 C1065  C    -0.495540     -0.137934      0.323975 
 C1066  C     0.484518      0.136755     -0.252433 
 C1067  C     0.321721      0.114471     -0.301481 
 C1068  C    -0.335786     -0.098998      0.364053 
 C1069  C    -0.329436     -0.150272     -0.376042 
 C1070  C     0.343003      0.169329      0.427705 
 C1071  C    -0.375563      0.165614      0.344155 
 C1072  C     0.424427     -0.179939     -0.310070 
 C1073  C     0.308197      0.100189     -0.203201 
 C1074  C    -0.300672     -0.089620      0.270774 
 C1075  C    -0.253268     -0.128391     -0.435354 
 C1076  C     0.245792      0.192795      0.437187 
 C1077  C    -0.388443      0.262876      0.324989 
 C1078  C     0.440223     -0.276023     -0.285993 
 C1079  C     0.336540      0.032029      0.304606 
 C1080  C    -0.307875     -0.034151     -0.233482 
 C1081  C     0.277434     -0.205012     -0.429621 
 C1082  C    -0.261921      0.178966      0.492687 
 C1083  C    -0.476037     -0.229362      0.359054 
 C1084  C     0.464672      0.228789     -0.286080 
 H1085  H     0.338855      0.143513     -0.394698 
 H1086  H    -0.371531     -0.111098      0.455493 
 H1087  H    -0.405517     -0.169131     -0.316057 
 H1088  H     0.438310      0.145865      0.412976 
 H1089  H    -0.354024      0.071755      0.366340 
 H1090  H     0.404764     -0.085629     -0.334221 
 O1091  O    -0.494621     -0.003132     -0.463456 
 O1092  O     0.316456     -0.004744      0.444856 
 O1093  O    -0.299367      0.011569     -0.372350 
 O1094  O     0.420211     -0.198192     -0.457873 
 O1095  O    -0.401685      0.188857     -0.462323 
 O1096  O     0.480860     -0.090461      0.340234 
 O1097  O    -0.492671      0.089897     -0.271030 
 O1098  O     0.388554      0.018674     -0.423613 
 O1099  O    -0.451863     -0.118489     -0.439900 
 O1100  O    -0.476532      0.037327      0.419100 
 O1101  O     0.389500     -0.035533     -0.492155 
 O1102  O     0.477254     -0.120283     -0.491032 
 O1103  O     0.473856     -0.034405      0.421377 
 O1104  O    -0.377044     -0.021575     -0.430452 
 O1105  O    -0.463163      0.113088     -0.487927 
 O1106  O     0.483593      0.029867     -0.347546 
 O1107  O    -0.380366      0.027548      0.497211 
 O1108  O     0.467204      0.113384     -0.435015 
 O1109  O    -0.462386     -0.038991     -0.347843 
 Zn1110  Zn    -0.029430      0.457324      0.472356 
 Zn1111  Zn    -0.030683     -0.458194     -0.439335 
 Zn1112  Zn     0.057038      0.456154     -0.441069 
 Zn1113  Zn     0.056525     -0.455916      0.473834 
 H1114  H    -0.190690      0.496904     -0.396238 
 H1115  H     0.217078     -0.483499      0.438471 
 H1116  H     0.095906      0.295013     -0.479440 
 H1117  H    -0.063860     -0.299487     -0.438667 
 H1118  H     0.035619     -0.418146      0.314106 
 H1119  H     0.029162      0.417118     -0.280918 
 H1120  H    -0.118507     -0.456805      0.363114 
 H1121  H     0.151270      0.451394     -0.314964 
 H1122  H    -0.147294      0.369161     -0.436503 
 H1123  H     0.152603     -0.368665      0.465924 
 H1124  H     0.047359      0.346536      0.385242 
 H1125  H    -0.043523     -0.338348     -0.341897 
 H1126  H    -0.128893      0.478302      0.346417 
 H1127  H     0.169217     -0.485350     -0.297663 
 H1128  H    -0.167059      0.355809      0.499947 
 H1129  H     0.142421     -0.357240     -0.467941 
 H1130  H    -0.015690      0.326020      0.371003 
 H1131  H     0.019825     -0.317667     -0.328619 
 H1132  H    -0.245451     -0.412825     -0.272271 
 H1133  H     0.255160      0.419288      0.320282 
 H1134  H     0.212003      0.240532     -0.383698 
 H1135  H    -0.146856     -0.295419      0.482004 
 H1136  H     0.111338     -0.287523      0.266978 
 H1137  H    -0.068717      0.304932     -0.229100 
 H1138  H    -0.223380     -0.350335     -0.257002 
 H1139  H     0.236142      0.355189      0.308264 
 H1140  H     0.224193      0.261167     -0.320103 
 H1141  H    -0.172455     -0.277083      0.421475 
 H1142  H     0.174583     -0.272531      0.286683 
 H1143  H    -0.132898      0.290924     -0.246423 
 H1144  H    -0.208902     -0.323869     -0.346111 
 H1145  H     0.211929      0.343253      0.402281 
 H1146  H     0.133259      0.277754     -0.301402 
 H1147  H    -0.089326     -0.290433      0.372050 
 H1148  H     0.194915     -0.366098      0.295856 
 H1149  H    -0.147417      0.384894     -0.271266 
 H1150  H    -0.232338     -0.383112     -0.370340 
 H1151  H     0.228835      0.407579      0.416812 
 H1152  H     0.111885      0.259609     -0.363442 
 H1153  H    -0.059479     -0.300401      0.432398 
 H1154  H     0.131918     -0.385964      0.279862 
 H1155  H    -0.082958      0.400550     -0.255932 
 H1156  H    -0.213218     -0.446576      0.384701 
 H1157  H     0.240617      0.434001     -0.348798 
 H1158  H    -0.121496      0.275230     -0.424958 
 H1159  H     0.159433     -0.269567      0.452765 
 H1160  H     0.062934      0.367224      0.291353 
 H1161  H    -0.052906     -0.372157     -0.251577 
 H1162  H    -0.224435      0.488134      0.364845 
 H1163  H     0.260688      0.496794     -0.327891 
 H1164  H    -0.142164      0.262682     -0.489699 
 H1165  H     0.140532     -0.263111     -0.481396 
 H1166  H    -0.000159      0.343872      0.275861 
 H1167  H     0.010122     -0.348235     -0.236020 
 H1168  H    -0.137004     -0.373222     -0.300037 
 H1169  H     0.145549      0.376604      0.337943 
 H1170  H     0.186892      0.349581     -0.343729 
 H1171  H    -0.147172     -0.366608      0.387353 
 H1172  H     0.158640     -0.316163      0.372151 
 H1173  H    -0.114750      0.320358     -0.337684 
 H1174  H    -0.165046     -0.431449     -0.321174 
 H1175  H     0.165372      0.440224      0.351925 
 H1176  H     0.169201      0.324446     -0.404376 
 H1177  H    -0.116559     -0.378718      0.447076 
 H1178  H     0.095826     -0.333165      0.352074 
 H1179  H    -0.050879      0.335786     -0.319941 
 H1180  H    -0.134600     -0.470193     -0.240677 
 H1181  H     0.151551      0.472245      0.269618 
 H1182  H     0.251454      0.349904     -0.437696 
 H1183  H    -0.237285     -0.280740     -0.478172 
 H1184  H     0.052894     -0.254894      0.373798 
 H1185  H    -0.017434      0.254192     -0.333990 
 H1186  H    -0.185090     -0.494332      0.272198 
 H1187  H     0.232225      0.479966     -0.232536 
 H1188  H    -0.235094      0.294874     -0.466174 
 H1189  H     0.230594     -0.316198     -0.461342 
 H1190  H     0.018381      0.252125      0.319152 
 H1191  H    -0.013136     -0.253522     -0.264231 
 H1192  H    -0.153199     -0.385658     -0.202492 
 H1193  H     0.174190      0.384159      0.240703 
 H1194  H     0.284151      0.329038     -0.350843 
 H1195  H    -0.210642     -0.368473      0.487404 
 H1196  H     0.139765     -0.219223      0.359980 
 H1197  H    -0.103619      0.223258     -0.308132 
 H1198  H    -0.210446     -0.404790      0.304283 
 H1199  H     0.244171      0.390521     -0.275511 
 H1200  H    -0.193616      0.278392     -0.377071 
 H1201  H     0.247131     -0.284688      0.450809 
 H1202  H     0.107679      0.293041      0.297916 
 H1203  H    -0.099174     -0.300550     -0.243865 
 C1204  C    -0.182680      0.495902     -0.479706 
 C1205  C     0.210071     -0.494187     -0.478781 
 C1206  C     0.012731      0.304687     -0.482570 
 C1207  C     0.008564     -0.303299     -0.481495 
 C1208  C     0.017839     -0.499930      0.319873 
 C1209  C     0.019029     -0.499810     -0.287403 
 C1210  C    -0.210787      0.496011     -0.433425 
 C1211  C     0.237578     -0.491180      0.474649 
 C1212  C     0.058297      0.275663     -0.479299 
 C1213  C    -0.032156     -0.277951     -0.456386 
 C1214  C     0.029357     -0.454321      0.293135 
 C1215  C     0.022748      0.453393     -0.260268 
 C1216  C    -0.208069      0.496413      0.472299 
 C1217  C     0.236039      0.495597     -0.432174 
 C1218  C    -0.035893      0.280576     -0.480885 
 C1219  C     0.048253     -0.273751      0.496053 
 C1220  C     0.012088      0.453235      0.293051 
 C1221  C     0.009430     -0.453336     -0.260872 
 C1222  C    -0.124957      0.494584     -0.477524 
 C1223  C     0.152265     -0.495811     -0.481350 
 C1224  C     0.016927      0.361998     -0.487255 
 C1225  C     0.008699     -0.361372     -0.482649 
 C1226  C     0.013863     -0.497709      0.377484 
 C1227  C     0.016694      0.498128     -0.345202 
 C1228  C    -0.147272     -0.483192      0.345975 
 C1229  C     0.184047      0.474811     -0.300938 
 C1230  C    -0.164119      0.338707     -0.461084 
 C1231  C     0.161822     -0.341536      0.497490 
 C1232  C     0.023900      0.327514      0.355184 
 C1233  C    -0.018629     -0.322852     -0.310954 
 C1234  C    -0.210339     -0.390384     -0.263441 
 C1235  C     0.221891      0.395339      0.308754 
 C1236  C     0.221004      0.274957     -0.360295 
 C1237  C    -0.165323     -0.310595      0.446792 
 C1238  C     0.135008     -0.278666      0.301238 
 C1239  C    -0.093130      0.292338     -0.261651 
 C1240  C    -0.196932     -0.363101     -0.357610 
 C1241  C     0.196501      0.382914      0.404153 
 C1242  C     0.125522      0.292790     -0.340445 
 C1243  C    -0.078422     -0.320601      0.400076 
 C1244  C     0.156791     -0.374756      0.312563 
 C1245  C    -0.108149      0.387259     -0.287609 
 C1246  C    -0.195263     -0.484969      0.380293 
 C1247  C     0.227366      0.473747     -0.341026 
 C1248  C    -0.127286      0.292693     -0.463393 
 C1249  C     0.138897     -0.288796      0.484715 
 C1250  C     0.023621      0.361194      0.306637 
 C1251  C    -0.014583     -0.362661     -0.267592 
 C1252  C    -0.174110     -0.391222     -0.310497 
 C1253  C     0.179075      0.399942      0.349873 
 C1254  C     0.176033      0.313637     -0.363739 
 C1255  C    -0.127483     -0.347664      0.419964 
 C1256  C     0.135242     -0.325502      0.337863 
 C1257  C    -0.090665      0.333101     -0.304995 
 C1258  C    -0.186200     -0.410437     -0.212949 
 C1259  C     0.205385      0.410215      0.253477 
 C1260  C     0.273747      0.296899     -0.376777 
 C1261  C    -0.217321     -0.335449      0.461315 
 C1262  C     0.115935     -0.227938      0.325779 
 C1263  C    -0.077090      0.237277     -0.277887 
 C1264  C    -0.156840     -0.467637      0.289391 
 C1265  C     0.200152      0.455909     -0.246815 
 C1266  C    -0.218873      0.325650     -0.441710 
 C1267  C     0.220593     -0.341901     -0.493799 
 C1268  C     0.043314      0.271724      0.347454 
 C1269  C    -0.039118     -0.269605     -0.293845 
 H1270  H    -0.158937     -0.359269     -0.402831 
 H1271  H     0.153076      0.385156      0.444519 
 H1272  H     0.082978      0.333867     -0.337515 
 H1273  H    -0.039800     -0.357793      0.374866 
 H1274  H     0.161688     -0.420275      0.350213 
 H1275  H    -0.107490      0.427329     -0.331378 
 O1276  O     0.013481     -0.499933     -0.483471 
 O1277  O    -0.177088      0.497233      0.429435 
 O1278  O     0.206978      0.495225     -0.387847 
 O1279  O    -0.078758      0.311651     -0.482303 
 O1280  O     0.086568     -0.297394      0.468593 
 O1281  O     0.001712      0.409882      0.321548 
 O1282  O     0.007704     -0.408577     -0.289231 
 O1283  O    -0.103233     -0.480736     -0.441033 
 O1284  O     0.053629      0.383655     -0.462850 
 O1285  O     0.041192     -0.463790      0.400143 
 O1286  O    -0.102019      0.468417      0.487920 
 O1287  O    -0.015820      0.384480      0.484035 
 O1288  O    -0.016821      0.470958      0.399427 
 O1289  O     0.129055      0.476793     -0.447890 
 O1290  O     0.043621     -0.383638      0.490999 
 O1291  O    -0.008824     -0.466619     -0.367903 
 O1292  O     0.130726     -0.470427      0.482466 
 O1293  O    -0.026428     -0.384306     -0.456967 
 O1294  O     0.039592      0.460584     -0.367217 
 Zn1295  Zn    -0.441675     -0.460362     -0.436958 
 Zn1296  Zn    -0.444605      0.451944      0.477545 
 Zn1297  Zn     0.469741     -0.459337      0.479782 
 Zn1298  Zn     0.470820      0.454060     -0.433513 
 H1299  H     0.310158      0.479893     -0.396345 
 H1300  H    -0.282082      0.495387      0.433149 
 H1301  H    -0.408294      0.291552     -0.480231 
 H1302  H     0.428895     -0.301865     -0.471730 
 H1303  H     0.492868     -0.423228      0.319883 
 H1304  H    -0.495692      0.411503     -0.275785 
 H1305  H     0.374988     -0.453804      0.356900 
 H1306  H    -0.351756      0.454118     -0.322202 
 H1307  H     0.346390      0.361973     -0.427800 
 H1308  H    -0.322336     -0.341898      0.466506 
 H1309  H    -0.443972      0.334838      0.386807 
 H1310  H     0.497549     -0.349038     -0.344397 
 H1311  H     0.360492      0.481755      0.340860 
 H1312  H    -0.339229     -0.481810     -0.303874 
 H1313  H     0.329021      0.345002     -0.491283 
 H1314  H    -0.302361     -0.350492     -0.469038 
 H1315  H     0.493723      0.314940      0.368478 
 H1316  H    -0.440515     -0.328053     -0.326210 
 H1317  H     0.282567     -0.426337     -0.284128 
 H1318  H    -0.247672      0.404009      0.341485 
 H1319  H    -0.285356      0.254545     -0.389433 
 H1320  H     0.313956     -0.381356      0.467956 
 H1321  H    -0.417621     -0.297218      0.295622 
 H1322  H     0.415770      0.296801     -0.214128 
 H1323  H     0.300568     -0.362162     -0.270799 
 H1324  H    -0.281081      0.350950      0.315008 
 H1325  H    -0.272768      0.276995     -0.326568 
 H1326  H     0.326374     -0.320288      0.495257 
 H1327  H    -0.356317     -0.280484      0.319773 
 H1328  H     0.351921      0.283035     -0.232928 
 H1329  H     0.328537     -0.348871     -0.363652 
 H1330  H    -0.283719      0.313707      0.403512 
 H1331  H    -0.367287      0.295677     -0.311530 
 H1332  H     0.415553     -0.321484      0.446111 
 H1333  H    -0.338621     -0.374055      0.345507 
 H1334  H     0.332974      0.373674     -0.254316 
 H1335  H     0.312795     -0.413172     -0.379726 
 H1336  H    -0.257695      0.368393      0.434758 
 H1337  H    -0.383324      0.274537     -0.374196 
 H1338  H     0.398364     -0.382552      0.421619 
 H1339  H    -0.399587     -0.392193      0.321117 
 H1340  H     0.395464      0.395267     -0.238060 
 H1341  H     0.285075     -0.439899      0.389657 
 H1342  H    -0.255224      0.443744     -0.344505 
 H1343  H     0.377014      0.271990     -0.410218 
 H1344  H    -0.350541     -0.249866      0.489152 
 H1345  H    -0.425540      0.364396      0.296025 
 H1346  H     0.479218     -0.376610     -0.252716 
 H1347  H     0.267501      0.496264      0.369665 
 H1348  H    -0.247326     -0.489205     -0.329744 
 H1349  H     0.355525      0.252034     -0.472859 
 H1350  H    -0.337288     -0.264812     -0.444501 
 H1351  H    -0.487651      0.341681      0.275937 
 H1352  H    -0.458656     -0.353392     -0.233608 
 H1353  H     0.392469     -0.382740     -0.297038 
 H1354  H    -0.357763      0.370720      0.370642 
 H1355  H    -0.309282      0.364552     -0.351088 
 H1356  H     0.336984     -0.281967      0.406898 
 H1357  H    -0.382395     -0.312941      0.408032 
 H1358  H     0.373224      0.315778     -0.323462 
 H1359  H     0.373526     -0.446201     -0.312717 
 H1360  H    -0.325727      0.424506      0.396949 
 H1361  H    -0.324428      0.340496     -0.412809 
 H1362  H     0.320363     -0.341609      0.378463 
 H1363  H    -0.442896     -0.331626      0.383274 
 H1364  H     0.434646      0.334557     -0.301094 
 H1365  H     0.383335     -0.479992     -0.232260 
 H1366  H    -0.237516      0.444207      0.253886 
 H1367  H    -0.243659      0.359793     -0.447668 
 H1368  H     0.232211     -0.381080     -0.481775 
 H1369  H    -0.483448     -0.253653      0.393262 
 H1370  H     0.468763      0.252597     -0.321184 
 H1371  H     0.298603     -0.489619      0.273089 
 H1372  H    -0.279420      0.485922     -0.233452 
 H1373  H     0.260361      0.286018     -0.459006 
 H1374  H    -0.261152     -0.264307      0.460113 
 H1375  H    -0.469772      0.246745      0.311376 
 H1376  H    -0.479288     -0.260461     -0.268655 
 H1377  H     0.361011     -0.391589     -0.201966 
 H1378  H    -0.316602      0.464035      0.305879 
 H1379  H    -0.210519      0.342022     -0.359900 
 H1380  H     0.235250     -0.346144      0.423896 
 H1381  H    -0.395901     -0.216703      0.380375 
 H1382  H     0.382351      0.220080     -0.298474 
 H1383  H     0.275028     -0.402312      0.314739 
 H1384  H    -0.262181      0.395841     -0.272442 
 H1385  H     0.303024      0.266714     -0.370379 
 H1386  H    -0.235359     -0.351568      0.426243 
 H1387  H    -0.381680      0.291655      0.294377 
 H1388  H     0.432580     -0.303673     -0.254542 
 C1389  C     0.317201      0.490765     -0.479015 
 C1390  C    -0.290302      0.495178     -0.483289 
 C1391  C    -0.491474      0.299526     -0.476771 
 C1392  C    -0.487593     -0.306427     -0.474029 
 C1393  C    -0.496650      0.493938      0.325635 
 C1394  C    -0.476683      0.493124     -0.282374 
 C1395  C     0.289645      0.487498     -0.432524 
 C1396  C    -0.262186      0.495511      0.470426 
 C1397  C    -0.445135      0.271587     -0.475174 
 C1398  C     0.465193     -0.280302     -0.469991 
 C1399  C    -0.498779     -0.459009      0.298935 
 C1400  C    -0.487236      0.447457     -0.255206 
 C1401  C     0.291207     -0.499356      0.474315 
 C1402  C    -0.264940      0.494987     -0.435209 
 C1403  C     0.461224      0.274286     -0.468088 
 C1404  C    -0.440695     -0.279218     -0.471788 
 C1405  C    -0.486223      0.447815      0.299004 
 C1406  C    -0.467589     -0.460492     -0.255633 
 C1407  C    -0.347939      0.497763     -0.485545 
 C1408  C     0.374884      0.494472     -0.475933 
 C1409  C    -0.488232     -0.364168     -0.474952 
 C1410  C    -0.488678      0.357394     -0.477803 
 C1411  C    -0.478618      0.492286     -0.340111 
 C1412  C    -0.493580      0.495819      0.383432 
 C1413  C     0.343611     -0.479155      0.343052 
 C1414  C    -0.321715      0.479324     -0.305546 
 C1415  C     0.331342      0.329870     -0.451489 
 C1416  C    -0.307521     -0.321067     -0.499489 
 C1417  C    -0.466235      0.318542      0.354281 
 C1418  C    -0.480569     -0.331920     -0.312078 
 C1419  C     0.315160     -0.402190     -0.271193 
 C1420  C    -0.286561      0.389934      0.331318 
 C1421  C    -0.275520      0.289509     -0.367204 
 C1422  C     0.309349     -0.339504      0.461332 
 C1423  C    -0.397298     -0.284346      0.330767 
 C1424  C     0.391841      0.285748     -0.247582 
 C1425  C     0.344298     -0.388408     -0.365296 
 C1426  C    -0.294175      0.350843      0.421463 
 C1427  C    -0.371934      0.308897     -0.351755 
 C1428  C     0.396174     -0.340782      0.413620 
 C1429  C    -0.379547     -0.378890      0.356274 
 C1430  C     0.371853      0.380297     -0.270219 
 C1431  C     0.299832     -0.479246      0.382685 
 C1432  C    -0.275355      0.481212     -0.342139 
 C1433  C     0.369757      0.285111     -0.450103 
 C1434  C    -0.347521     -0.281426     -0.482328 
 C1435  C    -0.465287      0.356445      0.309045 
 C1436  C    -0.481096     -0.369037     -0.266253 
 C1437  C     0.359540     -0.406027     -0.310625 
 C1438  C    -0.319205      0.385763      0.380553 
 C1439  C    -0.319761      0.329069     -0.372066 
 C1440  C     0.339260     -0.324160      0.412352 
 C1441  C    -0.402001     -0.326302      0.372719 
 C1442  C     0.394313      0.328537     -0.288787 
 C1443  C     0.330081     -0.417490     -0.215636 
 C1444  C    -0.310162      0.425112      0.289776 
 C1445  C    -0.222014      0.309212     -0.384527 
 C1446  C     0.251594     -0.326446      0.457909 
 C1447  C    -0.417808     -0.230718      0.346630 
 C1448  C     0.408412      0.232018     -0.266979 
 C1449  C     0.327349     -0.462217      0.288317 
 C1450  C    -0.309820      0.461250     -0.250039 
 C1451  C     0.276501      0.315719     -0.433187 
 C1452  C    -0.255001     -0.297047      0.486680 
 C1453  C    -0.445584      0.264225      0.341635 
 C1454  C     0.498024     -0.277661     -0.300241 
 H1455  H     0.389643     -0.389937     -0.403425 
 H1456  H    -0.329582      0.340982      0.467740 
 H1457  H    -0.415345      0.349288     -0.354197 
 H1458  H     0.425695     -0.328866      0.363762 
 H1459  H    -0.384036     -0.420581      0.398258 
 H1460  H     0.368713      0.420921     -0.313227 
 O1461  O    -0.486520      0.496284     -0.478485 
 O1462  O     0.320479     -0.499082      0.430105 
 O1463  O    -0.295684      0.494189     -0.392046 
 O1464  O     0.417239      0.303574     -0.471762 
 O1465  O    -0.396210     -0.307379     -0.477740 
 O1466  O    -0.488007      0.403321      0.327636 
 O1467  O    -0.458290     -0.416528     -0.283502 
 O1468  O    -0.370718      0.470862      0.480178 
 O1469  O     0.476762     -0.385850      0.498227 
 O1470  O     0.492822      0.458256     -0.361037 
 O1471  O    -0.369701     -0.472617     -0.453155 
 O1472  O    -0.454398     -0.387208     -0.447997 
 O1473  O    -0.451328     -0.474721     -0.363947 
 O1474  O     0.397501     -0.477710      0.490529 
 O1475  O     0.477538      0.381565     -0.451708 
 O1476  O    -0.466796      0.461305      0.405953 
 O1477  O     0.396838      0.470549     -0.439007 
 O1478  O    -0.452240      0.378063      0.496346 
 O1479  O     0.482782     -0.467205      0.405564 
loop_  
_geom_bond_atom_site_label_1  
_geom_bond_atom_site_label_2  
Zn0   O166 
Zn0   O176 
Zn0   O177 
Zn0   O178 
Zn1   O166 
Zn1   O173 
Zn1   O181 
Zn1   O183 
Zn2   O166 
Zn2   O174 
Zn2   O179 
Zn2   O184 
Zn3   O166 
Zn3   O175 
Zn3   O180 
Zn3   O182 
H4   C100 
H5   C101 
H6   C102 
H7   C103 
H8   C104 
H9   C105 
H10   C118 
H11   C119 
H12   C120 
H13   C121 
H14   C122 
H15   C123 
H16   C118 
H17   C119 
H18   C120 
H19   C121 
H20   C122 
H21   C123 
H22   C124 
H23   C125 
H24   C126 
H25   C127 
H26   C128 
H27   C129 
H28   C124 
H29   C125 
H30   C126 
H31   C127 
H32   C128 
H33   C129 
H34   C130 
H35   C131 
H36   C132 
H37   C133 
H38   C134 
H39   C135 
H40   C130 
H41   C131 
H42   C132 
H43   C133 
H44   C134 
H45   C135 
H46   C136 
H47   C137 
H48   C138 
H49   C139 
H50   C140 
H51   C141 
H52   C136 
H53   C137 
H54   C138 
H55   C139 
H56   C140 
H57   C141 
H58   C142 
H59   C143 
H60   C144 
H61   C145 
H62   C146 
H63   C147 
H64   C142 
H65   C143 
H66   C144 
H67   C145 
H68   C146 
H69   C147 
H70   C894 
H71   C895 
H72   C341 
H73   C342 
H74   C528 
H75   C529 
H76   C154 
H77   C155 
H78   C156 
H79   C157 
H80   C158 
H81   C159 
H82   C148 
H83   C149 
H84   C150 
H85   C151 
H86   C152 
H87   C153 
H88   C888 
H89   C889 
H90   C335 
H91   C336 
H92   C522 
H93   C523 
C94   C100 
C94   C106 
C94   C112 
C95   C101 
C95   C107 
C95   C113 
C96   C102 
C96   C108 
C96   C114 
C97   C103 
C97   C109 
C97   C115 
C98   C104 
C98   C110 
C98   C116 
C99   C105 
C99   C111 
C99   C117 
C100   C292 
C101   C291 
C102   C479 
C103   C478 
C104   C851 
C105   C850 
C106   O167 
C106   C286 
C107   O168 
C107   C285 
C108   O169 
C108   C473 
C109   O170 
C109   C472 
C110   O171 
C110   C845 
C111   O172 
C111   C844 
C112   O173 
C112   O176 
C113   O179 
C113   O182 
C114   O174 
C114   O177 
C115   O180 
C115   O183 
C116   O175 
C116   O178 
C117   O181 
C117   O184 
C118   C136 
C118   C154 
C119   C137 
C119   C155 
C120   C138 
C120   C156 
C121   C139 
C121   C157 
C122   C140 
C122   C158 
C123   C141 
C123   C159 
C124   C142 
C124   C148 
C125   C143 
C125   C149 
C126   C144 
C126   C150 
C127   C145 
C127   C151 
C128   C146 
C128   C152 
C129   C147 
C129   C153 
C130   C142 
C130   H160 
C131   C143 
C131   H161 
C132   C144 
C132   H162 
C133   C145 
C133   H163 
C134   C146 
C134   H164 
C135   C147 
C135   H165 
C136   O167 
C137   O168 
C138   O169 
C139   O170 
C140   O171 
C141   O172 
C148   H828 
C148   C894 
C149   H829 
C149   C895 
C150   H275 
C150   C341 
C151   H276 
C151   C342 
C152   H462 
C152   C528 
C153   H463 
C153   C529 
C154   H810 
C154   C888 
C155   H811 
C155   C889 
C156   H257 
C156   C335 
C157   H258 
C157   C336 
C158   H444 
C158   C522 
C159   H445 
C159   C523 
Zn185   O351 
Zn185   O361 
Zn185   O362 
Zn185   O363 
Zn186   O351 
Zn186   O358 
Zn186   O366 
Zn186   O368 
Zn187   O351 
Zn187   O359 
Zn187   O364 
Zn187   O369 
Zn188   O351 
Zn188   O360 
Zn188   O365 
Zn188   O367 
H189   C285 
H190   C286 
H191   C287 
H192   C288 
H193   C289 
H194   C290 
H195   C303 
H196   C304 
H197   C305 
H198   C306 
H199   C307 
H200   C308 
H201   C303 
H202   C304 
H203   C305 
H204   C306 
H205   C307 
H206   C308 
H207   C309 
H208   C310 
H209   C311 
H210   C312 
H211   C313 
H212   C314 
H213   C309 
H214   C310 
H215   C311 
H216   C312 
H217   C313 
H218   C314 
H219   C315 
H220   C316 
H221   C317 
H222   C318 
H223   C319 
H224   C320 
H225   C315 
H226   C316 
H227   C317 
H228   C318 
H229   C319 
H230   C320 
H231   C321 
H232   C322 
H233   C323 
H234   C324 
H235   C325 
H236   C326 
H237   C321 
H238   C322 
H239   C323 
H240   C324 
H241   C325 
H242   C326 
H243   C327 
H244   C328 
H245   C329 
H246   C330 
H247   C331 
H248   C332 
H249   C327 
H250   C328 
H251   C329 
H252   C330 
H253   C331 
H254   C332 
H255   C1079 
H256   C1080 
H259   C713 
H260   C714 
H261   C339 
H262   C340 
H263   C341 
H264   C342 
H265   C343 
H266   C344 
H267   C333 
H268   C334 
H269   C335 
H270   C336 
H271   C337 
H272   C338 
H273   C1073 
H274   C1074 
H277   C707 
H278   C708 
C279   C285 
C279   C291 
C279   C298 
C280   C286 
C280   C292 
C280   C297 
C281   C287 
C281   C293 
C281   C300 
C282   C288 
C282   C294 
C282   C299 
C283   C289 
C283   C295 
C283   C302 
C284   C290 
C284   C296 
C284   C301 
C287   C664 
C288   C663 
C289   C1036 
C290   C1035 
C291   O352 
C292   O353 
C293   O354 
C293   C658 
C294   O355 
C294   C657 
C295   O356 
C295   C1030 
C296   O357 
C296   C1029 
C297   O358 
C297   O361 
C298   O364 
C298   O367 
C299   O359 
C299   O362 
C300   O365 
C300   O368 
C301   O360 
C301   O363 
C302   O366 
C302   O369 
C303   C321 
C303   C339 
C304   C322 
C304   C340 
C305   C323 
C305   C341 
C306   C324 
C306   C342 
C307   C325 
C307   C343 
C308   C326 
C308   C344 
C309   C327 
C309   C333 
C310   C328 
C310   C334 
C311   C329 
C311   C335 
C312   C330 
C312   C336 
C313   C331 
C313   C337 
C314   C332 
C314   C338 
C315   C327 
C315   H345 
C316   C328 
C316   H346 
C317   C329 
C317   H347 
C318   C330 
C318   H348 
C319   C331 
C319   H349 
C320   C332 
C320   H350 
C321   O352 
C322   O353 
C323   O354 
C324   O355 
C325   O356 
C326   O357 
C333   H1013 
C333   C1079 
C334   H1014 
C334   C1080 
C337   H647 
C337   C713 
C338   H648 
C338   C714 
C339   H995 
C339   C1073 
C340   H996 
C340   C1074 
C343   H629 
C343   C707 
C344   H630 
C344   C708 
Zn370   O536 
Zn370   O546 
Zn370   O547 
Zn370   O548 
Zn371   O536 
Zn371   O543 
Zn371   O551 
Zn371   O553 
Zn372   O536 
Zn372   O544 
Zn372   O549 
Zn372   O554 
Zn373   O536 
Zn373   O545 
Zn373   O550 
Zn373   O552 
H374   C470 
H375   C471 
H376   C472 
H377   C473 
H378   C474 
H379   C475 
H380   C488 
H381   C489 
H382   C490 
H383   C491 
H384   C492 
H385   C493 
H386   C488 
H387   C489 
H388   C490 
H389   C491 
H390   C492 
H391   C493 
H392   C494 
H393   C495 
H394   C496 
H395   C497 
H396   C498 
H397   C499 
H398   C494 
H399   C495 
H400   C496 
H401   C497 
H402   C498 
H403   C499 
H404   C500 
H405   C501 
H406   C502 
H407   C503 
H408   C504 
H409   C505 
H410   C500 
H411   C501 
H412   C502 
H413   C503 
H414   C504 
H415   C505 
H416   C506 
H417   C507 
H418   C508 
H419   C509 
H420   C510 
H421   C511 
H422   C506 
H423   C507 
H424   C508 
H425   C509 
H426   C510 
H427   C511 
H428   C512 
H429   C513 
H430   C514 
H431   C515 
H432   C516 
H433   C517 
H434   C512 
H435   C513 
H436   C514 
H437   C515 
H438   C516 
H439   C517 
H440   C1264 
H441   C1265 
H442   C711 
H443   C712 
H446   C524 
H447   C525 
H448   C526 
H449   C527 
H450   C528 
H451   C529 
H452   C518 
H453   C519 
H454   C520 
H455   C521 
H456   C522 
H457   C523 
H458   C1258 
H459   C1259 
H460   C705 
H461   C706 
C464   C470 
C464   C476 
C464   C483 
C465   C471 
C465   C477 
C465   C482 
C466   C472 
C466   C478 
C466   C485 
C467   C473 
C467   C479 
C467   C484 
C468   C474 
C468   C480 
C468   C487 
C469   C475 
C469   C481 
C469   C486 
C470   C662 
C471   C661 
C474   C1221 
C475   C1220 
C476   O537 
C476   C656 
C477   O538 
C477   C655 
C478   O539 
C479   O540 
C480   O541 
C480   C1215 
C481   O542 
C481   C1214 
C482   O543 
C482   O546 
C483   O549 
C483   O552 
C484   O544 
C484   O547 
C485   O550 
C485   O553 
C486   O545 
C486   O548 
C487   O551 
C487   O554 
C488   C506 
C488   C524 
C489   C507 
C489   C525 
C490   C508 
C490   C526 
C491   C509 
C491   C527 
C492   C510 
C492   C528 
C493   C511 
C493   C529 
C494   C512 
C494   C518 
C495   C513 
C495   C519 
C496   C514 
C496   C520 
C497   C515 
C497   C521 
C498   C516 
C498   C522 
C499   C517 
C499   C523 
C500   C512 
C500   H530 
C501   C513 
C501   H531 
C502   C514 
C502   H532 
C503   C515 
C503   H533 
C504   C516 
C504   H534 
C505   C517 
C505   H535 
C506   O537 
C507   O538 
C508   O539 
C509   O540 
C510   O541 
C511   O542 
C518   H1198 
C518   C1264 
C519   H1199 
C519   C1265 
C520   H645 
C520   C711 
C521   H646 
C521   C712 
C524   H1180 
C524   C1258 
C525   H1181 
C525   C1259 
C526   H627 
C526   C705 
C527   H628 
C527   C706 
Zn555   O721 
Zn555   O731 
Zn555   O732 
Zn555   O733 
Zn556   O721 
Zn556   O728 
Zn556   O736 
Zn556   O738 
Zn557   O721 
Zn557   O729 
Zn557   O734 
Zn557   O739 
Zn558   O721 
Zn558   O730 
Zn558   O735 
Zn558   O737 
H559   C655 
H560   C656 
H561   C657 
H562   C658 
H563   C659 
H564   C660 
H565   C673 
H566   C674 
H567   C675 
H568   C676 
H569   C677 
H570   C678 
H571   C673 
H572   C674 
H573   C675 
H574   C676 
H575   C677 
H576   C678 
H577   C679 
H578   C680 
H579   C681 
H580   C682 
H581   C683 
H582   C684 
H583   C679 
H584   C680 
H585   C681 
H586   C682 
H587   C683 
H588   C684 
H589   C685 
H590   C686 
H591   C687 
H592   C688 
H593   C689 
H594   C690 
H595   C685 
H596   C686 
H597   C687 
H598   C688 
H599   C689 
H600   C690 
H601   C691 
H602   C692 
H603   C693 
H604   C694 
H605   C695 
H606   C696 
H607   C691 
H608   C692 
H609   C693 
H610   C694 
H611   C695 
H612   C696 
H613   C697 
H614   C698 
H615   C699 
H616   C700 
H617   C701 
H618   C702 
H619   C697 
H620   C698 
H621   C699 
H622   C700 
H623   C701 
H624   C702 
H625   C1449 
H626   C1450 
H631   C709 
H632   C710 
H633   C711 
H634   C712 
H635   C713 
H636   C714 
H637   C703 
H638   C704 
H639   C705 
H640   C706 
H641   C707 
H642   C708 
H643   C1443 
H644   C1444 
C649   C655 
C649   C661 
C649   C667 
C650   C656 
C650   C662 
C650   C668 
C651   C657 
C651   C663 
C651   C669 
C652   C658 
C652   C664 
C652   C670 
C653   C659 
C653   C665 
C653   C671 
C654   C660 
C654   C666 
C654   C672 
C659   C1406 
C660   C1405 
C661   O722 
C662   O723 
C663   O724 
C664   O725 
C665   O726 
C665   C1400 
C666   O727 
C666   C1399 
C667   O728 
C667   O731 
C668   O734 
C668   O737 
C669   O729 
C669   O732 
C670   O735 
C670   O738 
C671   O730 
C671   O733 
C672   O736 
C672   O739 
C673   C691 
C673   C709 
C674   C692 
C674   C710 
C675   C693 
C675   C711 
C676   C694 
C676   C712 
C677   C695 
C677   C713 
C678   C696 
C678   C714 
C679   C697 
C679   C703 
C680   C698 
C680   C704 
C681   C699 
C681   C705 
C682   C700 
C682   C706 
C683   C701 
C683   C707 
C684   C702 
C684   C708 
C685   C697 
C685   H715 
C686   C698 
C686   H716 
C687   C699 
C687   H717 
C688   C700 
C688   H718 
C689   C701 
C689   H719 
C690   C702 
C690   H720 
C691   O722 
C692   O723 
C693   O724 
C694   O725 
C695   O726 
C696   O727 
C703   H1383 
C703   C1449 
C704   H1384 
C704   C1450 
C709   H1365 
C709   C1443 
C710   H1366 
C710   C1444 
Zn740   O906 
Zn740   O916 
Zn740   O917 
Zn740   O918 
Zn741   O906 
Zn741   O913 
Zn741   O921 
Zn741   O923 
Zn742   O906 
Zn742   O914 
Zn742   O919 
Zn742   O924 
Zn743   O906 
Zn743   O915 
Zn743   O920 
Zn743   O922 
H744   C840 
H745   C841 
H746   C842 
H747   C843 
H748   C844 
H749   C845 
H750   C858 
H751   C859 
H752   C860 
H753   C861 
H754   C862 
H755   C863 
H756   C858 
H757   C859 
H758   C860 
H759   C861 
H760   C862 
H761   C863 
H762   C864 
H763   C865 
H764   C866 
H765   C867 
H766   C868 
H767   C869 
H768   C864 
H769   C865 
H770   C866 
H771   C867 
H772   C868 
H773   C869 
H774   C870 
H775   C871 
H776   C872 
H777   C873 
H778   C874 
H779   C875 
H780   C870 
H781   C871 
H782   C872 
H783   C873 
H784   C874 
H785   C875 
H786   C876 
H787   C877 
H788   C878 
H789   C879 
H790   C880 
H791   C881 
H792   C876 
H793   C877 
H794   C878 
H795   C879 
H796   C880 
H797   C881 
H798   C882 
H799   C883 
H800   C884 
H801   C885 
H802   C886 
H803   C887 
H804   C882 
H805   C883 
H806   C884 
H807   C885 
H808   C886 
H809   C887 
H812   C1081 
H813   C1082 
H814   C1268 
H815   C1269 
H816   C894 
H817   C895 
H818   C896 
H819   C897 
H820   C898 
H821   C899 
H822   C888 
H823   C889 
H824   C890 
H825   C891 
H826   C892 
H827   C893 
H830   C1075 
H831   C1076 
H832   C1262 
H833   C1263 
C834   C840 
C834   C846 
C834   C853 
C835   C841 
C835   C847 
C835   C852 
C836   C842 
C836   C848 
C836   C855 
C837   C843 
C837   C849 
C837   C854 
C838   C844 
C838   C850 
C838   C857 
C839   C845 
C839   C851 
C839   C856 
C840   C1032 
C841   C1031 
C842   C1219 
C843   C1218 
C846   O907 
C846   C1026 
C847   O908 
C847   C1025 
C848   O909 
C848   C1213 
C849   O910 
C849   C1212 
C850   O911 
C851   O912 
C852   O913 
C852   O916 
C853   O919 
C853   O922 
C854   O914 
C854   O917 
C855   O920 
C855   O923 
C856   O915 
C856   O918 
C857   O921 
C857   O924 
C858   C876 
C858   C894 
C859   C877 
C859   C895 
C860   C878 
C860   C896 
C861   C879 
C861   C897 
C862   C880 
C862   C898 
C863   C881 
C863   C899 
C864   C882 
C864   C888 
C865   C883 
C865   C889 
C866   C884 
C866   C890 
C867   C885 
C867   C891 
C868   C886 
C868   C892 
C869   C887 
C869   C893 
C870   C882 
C870   H900 
C871   C883 
C871   H901 
C872   C884 
C872   H902 
C873   C885 
C873   H903 
C874   C886 
C874   H904 
C875   C887 
C875   H905 
C876   O907 
C877   O908 
C878   O909 
C879   O910 
C880   O911 
C881   O912 
C890   H1015 
C890   C1081 
C891   H1016 
C891   C1082 
C892   H1202 
C892   C1268 
C893   H1203 
C893   C1269 
C896   H997 
C896   C1075 
C897   H998 
C897   C1076 
C898   H1184 
C898   C1262 
C899   H1185 
C899   C1263 
Zn925   O1091 
Zn925   O1101 
Zn925   O1102 
Zn925   O1103 
Zn926   O1091 
Zn926   O1098 
Zn926   O1106 
Zn926   O1108 
Zn927   O1091 
Zn927   O1099 
Zn927   O1104 
Zn927   O1109 
Zn928   O1091 
Zn928   O1100 
Zn928   O1105 
Zn928   O1107 
H929   C1025 
H930   C1026 
H931   C1027 
H932   C1028 
H933   C1029 
H934   C1030 
H935   C1043 
H936   C1044 
H937   C1045 
H938   C1046 
H939   C1047 
H940   C1048 
H941   C1043 
H942   C1044 
H943   C1045 
H944   C1046 
H945   C1047 
H946   C1048 
H947   C1049 
H948   C1050 
H949   C1051 
H950   C1052 
H951   C1053 
H952   C1054 
H953   C1049 
H954   C1050 
H955   C1051 
H956   C1052 
H957   C1053 
H958   C1054 
H959   C1055 
H960   C1056 
H961   C1057 
H962   C1058 
H963   C1059 
H964   C1060 
H965   C1055 
H966   C1056 
H967   C1057 
H968   C1058 
H969   C1059 
H970   C1060 
H971   C1061 
H972   C1062 
H973   C1063 
H974   C1064 
H975   C1065 
H976   C1066 
H977   C1061 
H978   C1062 
H979   C1063 
H980   C1064 
H981   C1065 
H982   C1066 
H983   C1067 
H984   C1068 
H985   C1069 
H986   C1070 
H987   C1071 
H988   C1072 
H989   C1067 
H990   C1068 
H991   C1069 
H992   C1070 
H993   C1071 
H994   C1072 
H999   C1453 
H1000   C1454 
H1001   C1079 
H1002   C1080 
H1003   C1081 
H1004   C1082 
H1005   C1083 
H1006   C1084 
H1007   C1073 
H1008   C1074 
H1009   C1075 
H1010   C1076 
H1011   C1077 
H1012   C1078 
H1017   C1447 
H1018   C1448 
C1019   C1025 
C1019   C1031 
C1019   C1037 
C1020   C1026 
C1020   C1032 
C1020   C1038 
C1021   C1027 
C1021   C1033 
C1021   C1039 
C1022   C1028 
C1022   C1034 
C1022   C1040 
C1023   C1029 
C1023   C1035 
C1023   C1041 
C1024   C1030 
C1024   C1036 
C1024   C1042 
C1027   C1404 
C1028   C1403 
C1031   O1092 
C1032   O1093 
C1033   O1094 
C1033   C1398 
C1034   O1095 
C1034   C1397 
C1035   O1096 
C1036   O1097 
C1037   O1098 
C1037   O1101 
C1038   O1104 
C1038   O1107 
C1039   O1099 
C1039   O1102 
C1040   O1105 
C1040   O1108 
C1041   O1100 
C1041   O1103 
C1042   O1106 
C1042   O1109 
C1043   C1061 
C1043   C1079 
C1044   C1062 
C1044   C1080 
C1045   C1063 
C1045   C1081 
C1046   C1064 
C1046   C1082 
C1047   C1065 
C1047   C1083 
C1048   C1066 
C1048   C1084 
C1049   C1067 
C1049   C1073 
C1050   C1068 
C1050   C1074 
C1051   C1069 
C1051   C1075 
C1052   C1070 
C1052   C1076 
C1053   C1071 
C1053   C1077 
C1054   C1072 
C1054   C1078 
C1055   C1067 
C1055   H1085 
C1056   C1068 
C1056   H1086 
C1057   C1069 
C1057   H1087 
C1058   C1070 
C1058   H1088 
C1059   C1071 
C1059   H1089 
C1060   C1072 
C1060   H1090 
C1061   O1092 
C1062   O1093 
C1063   O1094 
C1064   O1095 
C1065   O1096 
C1066   O1097 
C1077   H1387 
C1077   C1453 
C1078   H1388 
C1078   C1454 
C1083   H1369 
C1083   C1447 
C1084   H1370 
C1084   C1448 
Zn1110   O1276 
Zn1110   O1286 
Zn1110   O1287 
Zn1110   O1288 
Zn1111   O1276 
Zn1111   O1283 
Zn1111   O1291 
Zn1111   O1293 
Zn1112   O1276 
Zn1112   O1284 
Zn1112   O1289 
Zn1112   O1294 
Zn1113   O1276 
Zn1113   O1285 
Zn1113   O1290 
Zn1113   O1292 
H1114   C1210 
H1115   C1211 
H1116   C1212 
H1117   C1213 
H1118   C1214 
H1119   C1215 
H1120   C1228 
H1121   C1229 
H1122   C1230 
H1123   C1231 
H1124   C1232 
H1125   C1233 
H1126   C1228 
H1127   C1229 
H1128   C1230 
H1129   C1231 
H1130   C1232 
H1131   C1233 
H1132   C1234 
H1133   C1235 
H1134   C1236 
H1135   C1237 
H1136   C1238 
H1137   C1239 
H1138   C1234 
H1139   C1235 
H1140   C1236 
H1141   C1237 
H1142   C1238 
H1143   C1239 
H1144   C1240 
H1145   C1241 
H1146   C1242 
H1147   C1243 
H1148   C1244 
H1149   C1245 
H1150   C1240 
H1151   C1241 
H1152   C1242 
H1153   C1243 
H1154   C1244 
H1155   C1245 
H1156   C1246 
H1157   C1247 
H1158   C1248 
H1159   C1249 
H1160   C1250 
H1161   C1251 
H1162   C1246 
H1163   C1247 
H1164   C1248 
H1165   C1249 
H1166   C1250 
H1167   C1251 
H1168   C1252 
H1169   C1253 
H1170   C1254 
H1171   C1255 
H1172   C1256 
H1173   C1257 
H1174   C1252 
H1175   C1253 
H1176   C1254 
H1177   C1255 
H1178   C1256 
H1179   C1257 
H1182   C1451 
H1183   C1452 
H1186   C1264 
H1187   C1265 
H1188   C1266 
H1189   C1267 
H1190   C1268 
H1191   C1269 
H1192   C1258 
H1193   C1259 
H1194   C1260 
H1195   C1261 
H1196   C1262 
H1197   C1263 
H1200   C1445 
H1201   C1446 
C1204   C1210 
C1204   C1216 
C1204   C1222 
C1205   C1211 
C1205   C1217 
C1205   C1223 
C1206   C1212 
C1206   C1218 
C1206   C1224 
C1207   C1213 
C1207   C1219 
C1207   C1225 
C1208   C1214 
C1208   C1220 
C1208   C1226 
C1209   C1215 
C1209   C1221 
C1209   C1227 
C1210   C1402 
C1211   C1401 
C1216   O1277 
C1216   C1396 
C1217   O1278 
C1217   C1395 
C1218   O1279 
C1219   O1280 
C1220   O1281 
C1221   O1282 
C1222   O1283 
C1222   O1286 
C1223   O1289 
C1223   O1292 
C1224   O1284 
C1224   O1287 
C1225   O1290 
C1225   O1293 
C1226   O1285 
C1226   O1288 
C1227   O1291 
C1227   O1294 
C1228   C1246 
C1228   C1264 
C1229   C1247 
C1229   C1265 
C1230   C1248 
C1230   C1266 
C1231   C1249 
C1231   C1267 
C1232   C1250 
C1232   C1268 
C1233   C1251 
C1233   C1269 
C1234   C1252 
C1234   C1258 
C1235   C1253 
C1235   C1259 
C1236   C1254 
C1236   C1260 
C1237   C1255 
C1237   C1261 
C1238   C1256 
C1238   C1262 
C1239   C1257 
C1239   C1263 
C1240   C1252 
C1240   H1270 
C1241   C1253 
C1241   H1271 
C1242   C1254 
C1242   H1272 
C1243   C1255 
C1243   H1273 
C1244   C1256 
C1244   H1274 
C1245   C1257 
C1245   H1275 
C1246   O1277 
C1247   O1278 
C1248   O1279 
C1249   O1280 
C1250   O1281 
C1251   O1282 
C1260   H1385 
C1260   C1451 
C1261   H1386 
C1261   C1452 
C1266   H1367 
C1266   C1445 
C1267   H1368 
C1267   C1446 
Zn1295   O1461 
Zn1295   O1471 
Zn1295   O1472 
Zn1295   O1473 
Zn1296   O1461 
Zn1296   O1468 
Zn1296   O1476 
Zn1296   O1478 
Zn1297   O1461 
Zn1297   O1469 
Zn1297   O1474 
Zn1297   O1479 
Zn1298   O1461 
Zn1298   O1470 
Zn1298   O1475 
Zn1298   O1477 
H1299   C1395 
H1300   C1396 
H1301   C1397 
H1302   C1398 
H1303   C1399 
H1304   C1400 
H1305   C1413 
H1306   C1414 
H1307   C1415 
H1308   C1416 
H1309   C1417 
H1310   C1418 
H1311   C1413 
H1312   C1414 
H1313   C1415 
H1314   C1416 
H1315   C1417 
H1316   C1418 
H1317   C1419 
H1318   C1420 
H1319   C1421 
H1320   C1422 
H1321   C1423 
H1322   C1424 
H1323   C1419 
H1324   C1420 
H1325   C1421 
H1326   C1422 
H1327   C1423 
H1328   C1424 
H1329   C1425 
H1330   C1426 
H1331   C1427 
H1332   C1428 
H1333   C1429 
H1334   C1430 
H1335   C1425 
H1336   C1426 
H1337   C1427 
H1338   C1428 
H1339   C1429 
H1340   C1430 
H1341   C1431 
H1342   C1432 
H1343   C1433 
H1344   C1434 
H1345   C1435 
H1346   C1436 
H1347   C1431 
H1348   C1432 
H1349   C1433 
H1350   C1434 
H1351   C1435 
H1352   C1436 
H1353   C1437 
H1354   C1438 
H1355   C1439 
H1356   C1440 
H1357   C1441 
H1358   C1442 
H1359   C1437 
H1360   C1438 
H1361   C1439 
H1362   C1440 
H1363   C1441 
H1364   C1442 
H1371   C1449 
H1372   C1450 
H1373   C1451 
H1374   C1452 
H1375   C1453 
H1376   C1454 
H1377   C1443 
H1378   C1444 
H1379   C1445 
H1380   C1446 
H1381   C1447 
H1382   C1448 
C1389   C1395 
C1389   C1401 
C1389   C1408 
C1390   C1396 
C1390   C1402 
C1390   C1407 
C1391   C1397 
C1391   C1403 
C1391   C1410 
C1392   C1398 
C1392   C1404 
C1392   C1409 
C1393   C1399 
C1393   C1405 
C1393   C1412 
C1394   C1400 
C1394   C1406 
C1394   C1411 
C1401   O1462 
C1402   O1463 
C1403   O1464 
C1404   O1465 
C1405   O1466 
C1406   O1467 
C1407   O1468 
C1407   O1471 
C1408   O1474 
C1408   O1477 
C1409   O1469 
C1409   O1472 
C1410   O1475 
C1410   O1478 
C1411   O1470 
C1411   O1473 
C1412   O1476 
C1412   O1479 
C1413   C1431 
C1413   C1449 
C1414   C1432 
C1414   C1450 
C1415   C1433 
C1415   C1451 
C1416   C1434 
C1416   C1452 
C1417   C1435 
C1417   C1453 
C1418   C1436 
C1418   C1454 
C1419   C1437 
C1419   C1443 
C1420   C1438 
C1420   C1444 
C1421   C1439 
C1421   C1445 
C1422   C1440 
C1422   C1446 
C1423   C1441 
C1423   C1447 
C1424   C1442 
C1424   C1448 
C1425   C1437 
C1425   H1455 
C1426   C1438 
C1426   H1456 
C1427   C1439 
C1427   H1457 
C1428   C1440 
C1428   H1458 
C1429   C1441 
C1429   H1459 
C1430   C1442 
C1430   H1460 
C1431   O1462 
C1432   O1463 
C1433   O1464 
C1434   O1465 
C1435   O1466 
C1436   O1467 
  
#END  
