data_
_symmetry_cell_setting           triclinic 
_symmetry_space_group_name_H-M   'P 1' 
_symmetry_Int_Tables_number      1 
loop_ 
_symmetry_equiv_pos_site_id 
_symmetry_equiv_pos_as_xyz 
1 x,y,z 
_cell_length_a             18.201150        
_cell_length_b             10.903802        
_cell_length_c             18.906287        
_cell_angle_alpha          89.460043        
_cell_angle_beta           90.694008        
_cell_angle_gamma          88.265487        
loop_  
_atom_site_label   
_atom_site_type_symbol  
_atom_site_fract_x  
_atom_site_fract_y  
_atom_site_fract_z 
 Cu0  Cu     0.011868      0.057881      0.060181 
 Cu1  Cu     0.008321      0.034168     -0.077856 
 O2  O    -0.054632      0.197250     -0.066430 
 C3  C    -0.081006      0.224106     -0.006908 
 O4  O    -0.041422      0.212845      0.049199 
 O5  O     0.104068      0.121441     -0.070815 
 C6  C     0.130214      0.165532     -0.012743 
 O7  O     0.098548      0.156693      0.048354 
 O8  O    -0.080577     -0.065328     -0.068001 
 C9  C    -0.112816     -0.073505     -0.006342 
 O10  O    -0.087088     -0.027583      0.051929 
 O11  O     0.066995     -0.110115     -0.068863 
 C12  C     0.100191     -0.125375     -0.007670 
 O13  O     0.071768     -0.097711      0.054168 
 Cu14  Cu    -0.496343     -0.453041      0.060318 
 Cu15  Cu    -0.486569     -0.478900     -0.077703 
 O16  O     0.430048     -0.359651     -0.066282 
 C17  C     0.393770     -0.326816     -0.007310 
 O18  O     0.411878     -0.357272      0.055008 
 O19  O    -0.417738     -0.343319     -0.067356 
 C20  C    -0.391566     -0.312240     -0.007083 
 O21  O    -0.425420     -0.317025      0.050754 
 O22  O     0.451958      0.374608     -0.076486 
 C23  C     0.422584      0.352333     -0.017001 
 O24  O     0.449621      0.387794      0.039999 
 O25  O    -0.400526      0.402379     -0.063219 
 C26  C    -0.377952      0.388276     -0.001183 
 O27  O    -0.413279      0.433701      0.052964 
 C28  C    -0.286152      0.236773     -0.039293 
 C29  C    -0.303621      0.326190      0.008109 
 C30  C    -0.255505      0.365855      0.060760 
 C31  C    -0.179311      0.331758      0.054449 
 C32  C    -0.161218      0.252947     -0.001423 
 C33  C    -0.214352      0.204197     -0.045937 
 O34  O    -0.277922      0.463729      0.101294 
 C35  C    -0.220811     -0.494223      0.149648 
 C36  C    -0.264134     -0.395190      0.188300 
 C37  C    -0.219124     -0.305981      0.231864 
 C38  C    -0.177582     -0.367083      0.294080 
 O39  O    -0.189979      0.130983     -0.100280 
 C40  C    -0.238820      0.075231     -0.146831 
 C41  C    -0.265577      0.165754     -0.204121 
 C42  C    -0.217342      0.192647     -0.268975 
 C43  C    -0.254029      0.288689     -0.319477 
 H44  H    -0.133788      0.351831      0.087625 
 H45  H    -0.331080      0.200742     -0.066991 
 H46  H    -0.207871     -0.008854     -0.165351 
 H47  H    -0.284035      0.045585     -0.114288 
 H48  H    -0.200287      0.431808      0.186098 
 H49  H    -0.175824     -0.448766      0.121326 
 H50  H    -0.316107      0.139792     -0.227216 
 H51  H    -0.274157      0.257542     -0.175460 
 H52  H    -0.295997     -0.329429      0.154057 
 H53  H    -0.299878     -0.435442      0.229039 
 H54  H    -0.182179     -0.265641      0.195451 
 H55  H    -0.254009     -0.227761      0.249596 
 H56  H    -0.165993      0.230203     -0.250185 
 H57  H    -0.201034      0.106904     -0.295509 
 H58  H    -0.212981      0.322025     -0.359522 
 H59  H    -0.301785      0.248054     -0.346625 
 H60  H    -0.272752      0.362554     -0.284548 
 H61  H    -0.211740     -0.393815      0.336284 
 H62  H    -0.143317     -0.446666      0.278771 
 H63  H    -0.138911     -0.304102      0.313501 
 N64  N     0.001301      0.017849      0.310857 
 C65  C     0.043430      0.126434      0.286270 
 C66  C     0.032915     -0.101563      0.281016 
 C67  C    -0.073560      0.042438      0.284874 
 C68  C     0.032166     -0.085287      0.198291 
 H69  H     0.086669     -0.125168      0.306353 
 H70  H    -0.004181     -0.177033      0.295709 
 C71  C     0.037333      0.131482      0.207322 
 H72  H     0.028477      0.206072      0.315109 
 H73  H     0.099440      0.117014      0.308759 
 C74  C    -0.075892      0.037132      0.201631 
 H75  H    -0.115953     -0.020691      0.308453 
 H76  H    -0.088507      0.135016      0.299249 
 H77  H     0.007060      0.216540      0.189905 
 H78  H     0.094916      0.136220      0.189827 
 H79  H     0.091642     -0.087692      0.182267 
 H80  H     0.008054     -0.165699      0.173633 
 H81  H    -0.099705      0.111051      0.176027 
 N82  N    -0.000549      0.029821      0.173382 
 H83  H    -0.103508     -0.043903      0.183799 
 C84  C     0.254478      0.170535     -0.057511 
 C85  C     0.200555      0.231951     -0.013230 
 C86  C     0.223122      0.326217      0.031596 
 C87  C     0.297603      0.358641      0.028599 
 C88  C     0.348759      0.302230     -0.014854 
 C89  C     0.330126      0.202617     -0.054554 
 O90  O     0.184323      0.376462      0.084308 
 C91  C     0.114992      0.439732      0.061334 
 C92  C     0.065649      0.475869      0.125877 
 C93  C    -0.012284     -0.470684      0.110339 
 C94  C    -0.006944     -0.358654      0.059961 
 O95  O     0.384640      0.146329     -0.088293 
 C96  C     0.397807      0.018833     -0.070286 
 C97  C     0.477948     -0.029083     -0.086373 
 C98  C    -0.463055      0.037922     -0.047498 
 C99  C    -0.473364      0.049408      0.034654 
 H100  H     0.311849      0.442153      0.053597 
 H101  H     0.236656      0.102424     -0.092774 
 H102  H     0.390507      0.002487     -0.013007 
 H103  H     0.357592     -0.032100     -0.096963 
 H104  H     0.130722     -0.476562      0.031766 
 H105  H     0.078950      0.384716      0.021379 
 H106  H     0.477995     -0.129448     -0.079607 
 H107  H     0.491458     -0.021551     -0.143551 
 H108  H     0.061131      0.383941      0.147705 
 H109  H     0.097973     -0.474044      0.167522 
 H110  H    -0.044481      0.456738      0.089213 
 H111  H    -0.041407     -0.449384      0.165167 
 H112  H    -0.411894     -0.019768     -0.055348 
 H113  H    -0.459007      0.126918     -0.071535 
 H114  H    -0.476681     -0.028525      0.069070 
 H115  H    -0.428029      0.104790      0.048694 
 H116  H     0.475084      0.099428      0.044621 
 H117  H     0.013976     -0.384751      0.006030 
 H118  H    -0.059590     -0.310912      0.049617 
 H119  H     0.034743     -0.296334      0.076207 
 C120  C     0.198004     -0.236872     -0.065965 
 C121  C     0.177479     -0.167202     -0.008760 
 C122  C     0.230234     -0.136709      0.041135 
 C123  C     0.302271     -0.183137      0.037442 
 C124  C     0.324000     -0.254391     -0.017562 
 C125  C     0.267777     -0.287342     -0.068546 
 O126  O     0.212739     -0.053715      0.091382 
 C127  C     0.270328      0.006066      0.126816 
 C128  C     0.234196      0.114663      0.166976 
 C129  C     0.294575      0.196972      0.202805 
 C130  C     0.340944      0.129886      0.262545 
 O131  O     0.292830     -0.358781     -0.120710 
 C132  C     0.256877     -0.479158     -0.127899 
 C133  C     0.178274     -0.478951     -0.162817 
 C134  C     0.167034     -0.405086     -0.230797 
 C135  C     0.087562     -0.396981     -0.263891 
 H136  H     0.346805     -0.156468      0.078154 
 H137  H     0.155002     -0.252423     -0.106453 
 H138  H     0.287843      0.459726     -0.161637 
 H139  H     0.260344      0.474909     -0.074677 
 H140  H     0.292769     -0.060889      0.166913 
 H141  H     0.319484      0.032896      0.092698 
 H142  H     0.163863      0.428678     -0.175798 
 H143  H     0.136402     -0.458367     -0.122064 
 H144  H     0.200753      0.179434      0.134029 
 H145  H     0.195625      0.079639      0.202624 
 H146  H     0.329894      0.230738      0.161286 
 H147  H     0.266685      0.276208      0.226344 
 H148  H     0.184288     -0.309215     -0.220001 
 H149  H     0.208998     -0.427234     -0.273836 
 H150  H     0.084140     -0.335765     -0.309363 
 H151  H     0.062703     -0.484664     -0.279639 
 H152  H     0.052167     -0.356790     -0.223138 
 H153  H     0.386408      0.186809      0.277522 
 H154  H     0.305638      0.119152      0.309138 
 H155  H     0.369163      0.040712      0.249499 
 N156  N     0.496896      0.496310      0.308643 
 C157  C    -0.491560      0.370974      0.277489 
 C158  C     0.428533     -0.442151      0.279373 
 C159  C    -0.444414     -0.425499      0.286521 
 C160  C     0.430024     -0.420932      0.197248 
 H161  H     0.389461      0.489451      0.289048 
 H162  H     0.414757     -0.364001      0.311584 
 C163  C     0.491551      0.376491      0.196141 
 H164  H    -0.430858      0.339687      0.286679 
 H165  H     0.475182      0.300768      0.305729 
 C166  C    -0.438132     -0.440804      0.204399 
 H167  H    -0.456737     -0.322709      0.294928 
 H168  H    -0.388960     -0.444167      0.318697 
 H169  H    -0.467584      0.315870      0.163783 
 H170  H     0.435054      0.349234      0.184037 
 H171  H     0.379393     -0.444915      0.170934 
 H172  H     0.440435     -0.324451      0.185651 
 H173  H    -0.391039     -0.499121      0.192607 
 N174  N     0.496588     -0.493133      0.169573 
 H175  H    -0.423720     -0.348294      0.181003 
 C176  C    -0.305824     -0.169116      0.043374 
 C177  C    -0.313816     -0.262061     -0.003544 
 C178  C    -0.255597     -0.299430     -0.050217 
 C179  C    -0.192581     -0.233272     -0.052856 
 C180  C    -0.184115     -0.135839     -0.005025 
 C181  C    -0.239482     -0.110655      0.045922 
 O182  O    -0.270397     -0.389796     -0.096937 
 C183  C    -0.211674     -0.488761     -0.099233 
 C184  C    -0.173361     -0.484688     -0.169197 
 C185  C    -0.099702      0.446492     -0.176343 
 C186  C    -0.034502      0.499375     -0.132781 
 O187  O    -0.220079     -0.033616      0.101366 
 C188  C    -0.281415      0.025489      0.135490 
 C189  C    -0.248349      0.118982      0.191609 
 C190  C    -0.304475      0.193995      0.232255 
 C191  C    -0.275235      0.268794      0.295027 
 H192  H    -0.159018     -0.243492     -0.099021 
 H193  H    -0.354146     -0.147843      0.076581 
 H194  H    -0.317343      0.077812      0.096313 
 H195  H    -0.308865     -0.051558      0.167994 
 H196  H    -0.171248     -0.481929     -0.054898 
 H197  H    -0.237167      0.420835     -0.101634 
 H198  H    -0.214136      0.066015      0.228892 
 H199  H    -0.203913      0.171547      0.167037 
 H200  H    -0.210006      0.486161     -0.211124 
 H201  H    -0.153949     -0.390169     -0.182236 
 H202  H    -0.103419      0.347892     -0.165848 
 H203  H    -0.081387      0.445044     -0.229718 
 H204  H    -0.331162      0.247202      0.190859 
 H205  H    -0.349182      0.137273      0.252123 
 H206  H    -0.231092      0.328788      0.280037 
 H207  H    -0.316498      0.331038      0.316468 
 H208  H    -0.250050      0.192674      0.333789 
 H209  H    -0.022863     -0.397359     -0.138801 
 H210  H    -0.038971      0.490226     -0.074963 
 H211  H     0.014060      0.441224     -0.146376 
 Cu212  Cu    -0.001697     -0.034441     -0.441615 
 Cu213  Cu    -0.001360     -0.033380      0.418808 
 O214  O    -0.053271      0.134006      0.427888 
 C215  C    -0.078975      0.150908      0.489603 
 O216  O    -0.052256      0.122509     -0.450783 
 O217  O     0.091558      0.058042      0.428751 
 C218  C     0.128086      0.073077      0.488403 
 O219  O     0.099633      0.043860     -0.449704 
 O220  O    -0.089782     -0.116945      0.431702 
 C221  C    -0.122542     -0.139192      0.491480 
 O222  O    -0.098500     -0.108321     -0.447053 
 O223  O     0.055006     -0.196937      0.426218 
 C224  C     0.086503     -0.214394      0.488950 
 O225  O     0.057970     -0.193831     -0.448032 
 Cu226  Cu    -0.495038      0.460260     -0.442647 
 Cu227  Cu    -0.499969      0.467867      0.418401 
 O228  O     0.411301     -0.430715      0.439701 
 C229  C     0.387781     -0.395454      0.499755 
 O230  O     0.419699     -0.424058     -0.442351 
 O231  O    -0.442381     -0.368990      0.424328 
 C232  C    -0.405999     -0.365058      0.481875 
 O233  O    -0.422480     -0.420329     -0.460543 
 O234  O     0.447865      0.320413      0.425436 
 C235  C     0.412844      0.298678      0.480711 
 O236  O     0.433044      0.319878     -0.456406 
 O237  O    -0.399774      0.386356      0.422739 
 C238  C    -0.375414      0.352740      0.483845 
 O239  O    -0.403835      0.355822     -0.458442 
 C240  C    -0.247657      0.363745      0.444393 
 C241  C    -0.301181      0.297743      0.478955 
 C242  C    -0.285246      0.185746     -0.484534 
 C243  C    -0.211498      0.140465     -0.476398 
 C244  C    -0.156205      0.203704      0.489368 
 C245  C    -0.172899      0.315554      0.453459 
 O246  O    -0.342849      0.121882     -0.456676 
 C247  C    -0.335040      0.001872     -0.419890 
 C248  C    -0.410969     -0.056013     -0.425994 
 C249  C    -0.476555      0.029956     -0.398942 
 C250  C    -0.471646      0.049181     -0.318652 
 O251  O    -0.120758      0.383983      0.424206 
 C252  C    -0.117628      0.499369      0.459362 
 C253  C    -0.038806     -0.465937      0.467664 
 C254  C     0.009745      0.439150     -0.488830 
 C255  C    -0.020515      0.406681     -0.416240 
 H256  H    -0.204941      0.052376     -0.448624 
 H257  H    -0.257081      0.444694      0.408482 
 H258  H    -0.146132     -0.433297      0.425406 
 H259  H    -0.149482      0.491760     -0.489969 
 H260  H    -0.295542     -0.052902     -0.448132 
 H261  H    -0.322411      0.010111     -0.364023 
 H262  H    -0.018203     -0.451375      0.414747 
 H263  H    -0.039200     -0.379654      0.493720 
 H264  H    -0.422591     -0.067507     -0.481566 
 H265  H    -0.419663     -0.144447     -0.405977 
 H266  H    -0.479476      0.113624     -0.427348 
 H267  H     0.471393     -0.019322     -0.409738 
 H268  H     0.017118      0.355484      0.483205 
 H269  H     0.062651      0.478795     -0.486182 
 H270  H    -0.025824      0.483997     -0.380877 
 H271  H    -0.074233      0.362719     -0.414838 
 H272  H     0.021124      0.354175     -0.387695 
 H273  H    -0.472613     -0.040749     -0.287516 
 H274  H    -0.418026      0.097619     -0.308490 
 H275  H     0.483231      0.106251     -0.298635 
 N276  N     0.010156     -0.027527     -0.194641 
 C277  C     0.086311     -0.066781     -0.216880 
 C278  C    -0.037907     -0.122985     -0.220731 
 C279  C    -0.009114      0.090944     -0.226460 
 C280  C    -0.034125     -0.132195     -0.304575 
 H281  H    -0.014446     -0.207015     -0.195022 
 H282  H    -0.092852     -0.102533     -0.200492 
 C283  C     0.088077     -0.062687     -0.301232 
 H284  H     0.125516      0.004636     -0.196683 
 H285  H     0.100973     -0.159602     -0.193662 
 C286  C    -0.009648      0.085846     -0.308712 
 H287  H    -0.070101      0.109072     -0.207310 
 H288  H     0.021751      0.172821     -0.205422 
 H289  H     0.129010      0.009239     -0.316356 
 H290  H     0.102732     -0.158100     -0.315711 
 H291  H    -0.021413     -0.222244     -0.321418 
 H292  H    -0.089638     -0.111598     -0.328787 
 H293  H     0.033902      0.149444     -0.328808 
 N294  N     0.015403     -0.038813     -0.332913 
 H295  H    -0.063605      0.116681     -0.328507 
 C296  C     0.221499      0.186105      0.425442 
 C297  C     0.205645      0.112214      0.483068 
 C298  C     0.261234      0.088093     -0.465415 
 C299  C     0.329773      0.145652     -0.466853 
 C300  C     0.345171      0.223166      0.474375 
 C301  C     0.289808      0.248665      0.420892 
 O302  O     0.245196      0.016730     -0.404655 
 C303  C     0.308324     -0.049855     -0.375370 
 C304  C     0.276361     -0.124920     -0.319408 
 C305  C     0.336186     -0.203584     -0.277549 
 C306  C     0.357178     -0.151223     -0.204031 
 O307  O     0.298876      0.328126      0.366566 
 C308  C     0.263971      0.452478      0.369764 
 C309  C     0.182357      0.475618      0.365984 
 C310  C     0.140004      0.423977      0.302626 
 C311  C     0.058108      0.453011      0.312568 
 H312  H     0.367731      0.137140     -0.423154 
 H313  H     0.181139      0.197610      0.380632 
 H314  H     0.284744      0.499593      0.416106 
 H315  H     0.283183     -0.497362      0.322321 
 H316  H     0.336948     -0.101843     -0.417573 
 H317  H     0.352435      0.004347     -0.347424 
 H318  H     0.156084      0.435608      0.413046 
 H319  H     0.169405     -0.426555      0.369200 
 H320  H     0.247344     -0.066397     -0.278824 
 H321  H     0.232791     -0.181858     -0.343509 
 H322  H     0.323528     -0.306411     -0.269652 
 H323  H     0.384814     -0.208229     -0.314716 
 H324  H     0.155508      0.472123      0.253457 
 H325  H     0.148356      0.323994      0.290867 
 H326  H     0.046484     -0.447025      0.312010 
 H327  H     0.028856      0.425410      0.266548 
 H328  H     0.038372      0.408524      0.361933 
 H329  H     0.381971     -0.061351     -0.209749 
 H330  H     0.306414     -0.137644     -0.176809 
 H331  H     0.399889     -0.207242     -0.176179 
 C332  C     0.293895     -0.264779      0.443860 
 C333  C     0.315099     -0.332208     -0.495054 
 C334  C     0.263655     -0.372153     -0.444303 
 C335  C     0.188892     -0.325039     -0.447836 
 C336  C     0.165888     -0.263507      0.489529 
 C337  C     0.217920     -0.239127      0.433674 
 O338  O     0.281791     -0.456122     -0.391229 
 C339  C     0.233824      0.442007     -0.385400 
 C340  C     0.272264      0.354501     -0.331956 
 C341  C     0.224252      0.253350     -0.304057 
 C342  C     0.262241      0.176529     -0.246233 
 O343  O     0.196923     -0.171181      0.376617 
 C344  C     0.248904     -0.129556      0.326519 
 C345  C     0.271085     -0.233754      0.272438 
 C346  C     0.209866     -0.277298      0.226965 
 C347  C     0.226925     -0.372829      0.171053 
 H348  H     0.151663     -0.359838     -0.410151 
 H349  H     0.332086     -0.246915      0.400909 
 H350  H     0.225858     -0.055061      0.294255 
 H351  H     0.293378     -0.082185      0.359173 
 H352  H     0.183278      0.469979     -0.362161 
 H353  H     0.228684      0.403759     -0.441155 
 H354  H     0.312778     -0.191826      0.235122 
 H355  H     0.301621     -0.311592      0.300416 
 H356  H     0.320492      0.306185     -0.360299 
 H357  H     0.297571      0.402675     -0.285796 
 H358  H     0.175118      0.296071     -0.280819 
 H359  H     0.201105      0.200254     -0.347916 
 H360  H     0.165731     -0.303588      0.265072 
 H361  H     0.185153     -0.195421      0.200556 
 H362  H     0.271467     -0.347453      0.130178 
 H363  H     0.239167     -0.461816      0.194992 
 H364  H     0.175683     -0.385642      0.139245 
 H365  H     0.275628      0.232685     -0.201386 
 H366  H     0.223121      0.106120     -0.227787 
 H367  H     0.310120      0.134614     -0.271344 
 N368  N    -0.479998      0.480407     -0.195239 
 C369  C    -0.474395     -0.387858     -0.224640 
 C370  C    -0.418601      0.404575     -0.225952 
 C371  C     0.449431      0.429801     -0.223931 
 C372  C    -0.426679      0.408931     -0.306300 
 H373  H    -0.367226      0.455498     -0.211616 
 H374  H    -0.413335      0.315947     -0.204142 
 C375  C    -0.480862     -0.385714     -0.308469 
 H376  H     0.479488     -0.323571     -0.204020 
 H377  H    -0.425796     -0.349411     -0.203491 
 C378  C     0.448816      0.431824     -0.305073 
 H379  H     0.439044      0.335893     -0.201370 
 H380  H     0.404359      0.494671     -0.203507 
 H381  H     0.468111     -0.337139     -0.324931 
 H382  H    -0.430018     -0.339195     -0.330512 
 H383  H    -0.377900      0.451175     -0.325994 
 H384  H    -0.426852      0.312551     -0.324413 
 H385  H     0.394591      0.483394     -0.322096 
 N386  N    -0.487649      0.485825     -0.332384 
 H387  H     0.453750      0.339933     -0.325624 
 C388  C    -0.286016     -0.340533     -0.460796 
 C389  C    -0.333355     -0.303940      0.484450 
 C390  C    -0.316200     -0.216638      0.432236 
 C391  C    -0.247110     -0.166729      0.435242 
 C392  C    -0.196682     -0.199624      0.489805 
 C393  C    -0.217090     -0.283890     -0.458501 
 O394  O    -0.366211     -0.189954      0.380069 
 C395  C    -0.364304     -0.070292      0.343374 
 C396  C    -0.433415     -0.047688      0.298279 
 C397  C     0.492712     -0.061738      0.334078 
 C398  C     0.478272      0.039774      0.392631 
 O399  O    -0.173449     -0.301735     -0.398545 
 C400  C    -0.192259     -0.373337     -0.339124 
 C401  C    -0.268129     -0.339332     -0.310299 
 C402  C    -0.273286     -0.200807     -0.290446 
 C403  C    -0.345391     -0.163642     -0.251222 
 H404  H    -0.228178     -0.089769      0.402419 
 H405  H    -0.301337     -0.415471     -0.425354 
 H406  H    -0.188184     -0.470513     -0.354866 
 H407  H    -0.146451     -0.352162     -0.301386 
 H408  H    -0.353779     -0.001969      0.378848 
 H409  H    -0.315777     -0.064659      0.311570 
 H410  H    -0.312203     -0.347120     -0.348571 
 H411  H    -0.277295     -0.392633     -0.263283 
 H412  H    -0.431238      0.052432      0.278884 
 H413  H    -0.426148     -0.108043      0.250408 
 H414  H     0.446143     -0.067046      0.297062 
 H415  H     0.491146     -0.154148      0.353398 
 H416  H    -0.224330     -0.172848     -0.256411 
 H417  H    -0.275601     -0.149332     -0.337743 
 H418  H    -0.342285     -0.074105     -0.221604 
 H419  H    -0.394248     -0.170684     -0.285468 
 H420  H    -0.348129     -0.228893     -0.205242 
 H421  H     0.428345      0.024234      0.423232 
 H422  H    -0.477110      0.038401      0.432928 
 H423  H     0.467247      0.127351      0.368950 
loop_  
_geom_bond_atom_site_label_1  
_geom_bond_atom_site_label_2  
Cu0   Cu1 
Cu0   O4 
Cu0   O7 
Cu0   O10 
Cu0   O13 
Cu0   N82 
Cu1   O2 
Cu1   O5 
Cu1   O8 
Cu1   O11 
Cu1   N276 
O2   C3 
C3   O4 
C3   C32 
O5   C6 
C6   O7 
C6   C85 
O8   C9 
C9   O10 
C9   C180 
O11   C12 
C12   O13 
C12   C121 
Cu14   Cu15 
Cu14   O18 
Cu14   O21 
Cu14   O24 
Cu14   O27 
Cu14   N174 
Cu15   O16 
Cu15   O19 
Cu15   O22 
Cu15   O25 
Cu15   N368 
O16   C17 
C17   O18 
C17   C124 
O19   C20 
C20   O21 
C20   C177 
O22   C23 
C23   O24 
C23   C88 
O25   C26 
C26   O27 
C26   C29 
C28   C29 
C28   C33 
C28   H45 
C29   C30 
C30   C31 
C30   O34 
C31   C32 
C31   H44 
C32   C33 
C33   O39 
O34   C35 
C35   C36 
C35   H48 
C35   H49 
C36   C37 
C36   H52 
C36   H53 
C37   C38 
C37   H54 
C37   H55 
C38   H61 
C38   H62 
C38   H63 
O39   C40 
C40   C41 
C40   H46 
C40   H47 
C41   C42 
C41   H50 
C41   H51 
C42   C43 
C42   H56 
C42   H57 
C43   H58 
C43   H59 
C43   H60 
N64   C65 
N64   C66 
N64   C67 
N64   Cu213 
C65   C71 
C65   H72 
C65   H73 
C66   C68 
C66   H69 
C66   H70 
C67   C74 
C67   H75 
C67   H76 
C68   H79 
C68   H80 
C68   N82 
C71   H77 
C71   H78 
C71   N82 
C74   H81 
C74   N82 
C74   H83 
C84   C85 
C84   C89 
C84   H101 
C85   C86 
C86   C87 
C86   O90 
C87   C88 
C87   H100 
C88   C89 
C89   O95 
O90   C91 
C91   C92 
C91   H104 
C91   H105 
C92   C93 
C92   H108 
C92   H109 
C93   C94 
C93   H110 
C93   H111 
C94   H117 
C94   H118 
C94   H119 
O95   C96 
C96   C97 
C96   H102 
C96   H103 
C97   C98 
C97   H106 
C97   H107 
C98   C99 
C98   H112 
C98   H113 
C99   H114 
C99   H115 
C99   H116 
C120   C121 
C120   C125 
C120   H137 
C121   C122 
C122   C123 
C122   O126 
C123   C124 
C123   H136 
C124   C125 
C125   O131 
O126   C127 
C127   C128 
C127   H140 
C127   H141 
C128   C129 
C128   H144 
C128   H145 
C129   C130 
C129   H146 
C129   H147 
C130   H153 
C130   H154 
C130   H155 
O131   C132 
C132   C133 
C132   H138 
C132   H139 
C133   C134 
C133   H142 
C133   H143 
C134   C135 
C134   H148 
C134   H149 
C135   H150 
C135   H151 
C135   H152 
N156   C157 
N156   C158 
N156   C159 
N156   Cu227 
C157   C163 
C157   H164 
C157   H165 
C158   C160 
C158   H161 
C158   H162 
C159   C166 
C159   H167 
C159   H168 
C160   H171 
C160   H172 
C160   N174 
C163   H169 
C163   H170 
C163   N174 
C166   H173 
C166   N174 
C166   H175 
C176   C177 
C176   C181 
C176   H193 
C177   C178 
C178   C179 
C178   O182 
C179   C180 
C179   H192 
C180   C181 
C181   O187 
O182   C183 
C183   C184 
C183   H196 
C183   H197 
C184   C185 
C184   H200 
C184   H201 
C185   C186 
C185   H202 
C185   H203 
C186   H209 
C186   H210 
C186   H211 
O187   C188 
C188   C189 
C188   H194 
C188   H195 
C189   C190 
C189   H198 
C189   H199 
C190   C191 
C190   H204 
C190   H205 
C191   H206 
C191   H207 
C191   H208 
Cu212   Cu213 
Cu212   O216 
Cu212   O219 
Cu212   O222 
Cu212   O225 
Cu212   N294 
Cu213   O214 
Cu213   O217 
Cu213   O220 
Cu213   O223 
O214   C215 
C215   O216 
C215   C244 
O217   C218 
C218   O219 
C218   C297 
O220   C221 
C221   O222 
C221   C392 
O223   C224 
C224   O225 
C224   C336 
Cu226   Cu227 
Cu226   O230 
Cu226   O233 
Cu226   O236 
Cu226   O239 
Cu226   N386 
Cu227   O228 
Cu227   O231 
Cu227   O234 
Cu227   O237 
O228   C229 
C229   O230 
C229   C333 
O231   C232 
C232   O233 
C232   C389 
O234   C235 
C235   O236 
C235   C300 
O237   C238 
C238   O239 
C238   C241 
C240   C241 
C240   C245 
C240   H257 
C241   C242 
C242   C243 
C242   O246 
C243   C244 
C243   H256 
C244   C245 
C245   O251 
O246   C247 
C247   C248 
C247   H260 
C247   H261 
C248   C249 
C248   H264 
C248   H265 
C249   C250 
C249   H266 
C249   H267 
C250   H273 
C250   H274 
C250   H275 
O251   C252 
C252   C253 
C252   H258 
C252   H259 
C253   C254 
C253   H262 
C253   H263 
C254   C255 
C254   H268 
C254   H269 
C255   H270 
C255   H271 
C255   H272 
N276   C277 
N276   C278 
N276   C279 
C277   C283 
C277   H284 
C277   H285 
C278   C280 
C278   H281 
C278   H282 
C279   C286 
C279   H287 
C279   H288 
C280   H291 
C280   H292 
C280   N294 
C283   H289 
C283   H290 
C283   N294 
C286   H293 
C286   N294 
C286   H295 
C296   C297 
C296   C301 
C296   H313 
C297   C298 
C298   C299 
C298   O302 
C299   C300 
C299   H312 
C300   C301 
C301   O307 
O302   C303 
C303   C304 
C303   H316 
C303   H317 
C304   C305 
C304   H320 
C304   H321 
C305   C306 
C305   H322 
C305   H323 
C306   H329 
C306   H330 
C306   H331 
O307   C308 
C308   C309 
C308   H314 
C308   H315 
C309   C310 
C309   H318 
C309   H319 
C310   C311 
C310   H324 
C310   H325 
C311   H326 
C311   H327 
C311   H328 
C332   C333 
C332   C337 
C332   H349 
C333   C334 
C334   C335 
C334   O338 
C335   C336 
C335   H348 
C336   C337 
C337   O343 
O338   C339 
C339   C340 
C339   H352 
C339   H353 
C340   C341 
C340   H356 
C340   H357 
C341   C342 
C341   H358 
C341   H359 
C342   H365 
C342   H366 
C342   H367 
O343   C344 
C344   C345 
C344   H350 
C344   H351 
C345   C346 
C345   H354 
C345   H355 
C346   C347 
C346   H360 
C346   H361 
C347   H362 
C347   H363 
C347   H364 
N368   C369 
N368   C370 
N368   C371 
C369   C375 
C369   H376 
C369   H377 
C370   C372 
C370   H373 
C370   H374 
C371   C378 
C371   H379 
C371   H380 
C372   H383 
C372   H384 
C372   N386 
C375   H381 
C375   H382 
C375   N386 
C378   H385 
C378   N386 
C378   H387 
C388   C389 
C388   C393 
C388   H405 
C389   C390 
C390   C391 
C390   O394 
C391   C392 
C391   H404 
C392   C393 
C393   O399 
O394   C395 
C395   C396 
C395   H408 
C395   H409 
C396   C397 
C396   H412 
C396   H413 
C397   C398 
C397   H414 
C397   H415 
C398   H421 
C398   H422 
C398   H423 
O399   C400 
C400   C401 
C400   H406 
C400   H407 
C401   C402 
C401   H410 
C401   H411 
C402   C403 
C402   H416 
C402   H417 
C403   H418 
C403   H419 
C403   H420 
  
#END  
