data_
_symmetry_cell_setting           triclinic 
_symmetry_space_group_name_H-M   'P 1' 
_symmetry_Int_Tables_number      1 
loop_ 
_symmetry_equiv_pos_site_id 
_symmetry_equiv_pos_as_xyz 
1 x,y,z 
_cell_length_a             25.851656        
_cell_length_b             25.851657        
_cell_length_c             25.851657        
_cell_angle_alpha          90.000000        
_cell_angle_beta           90.000000        
_cell_angle_gamma          90.000000        
loop_  
_atom_site_label   
_atom_site_type_symbol  
_atom_site_fract_x  
_atom_site_fract_y  
_atom_site_fract_z 
 Zn0  Zn    -0.034343     -0.040923     -0.011097 
 Zn1  Zn    -0.031413      0.046772      0.074401 
 Zn2  Zn     0.054241     -0.041948      0.072163 
 Zn3  Zn     0.053162      0.044655     -0.014542 
 H4  H    -0.193936      0.003328      0.118797 
 H5  H     0.213824      0.018823     -0.051709 
 H6  H     0.095087     -0.199419      0.023676 
 H7  H    -0.067724      0.207163      0.032176 
 H8  H     0.019673      0.087213     -0.172269 
 H9  H     0.031114     -0.078056      0.232062 
 H10  H    -0.124262      0.044598     -0.125852 
 H11  H     0.148993     -0.047481      0.195045 
 H12  H    -0.153682     -0.159387      0.085440 
 H13  H     0.177591      0.136743     -0.020254 
 H14  H     0.026433     -0.152246     -0.103657 
 H15  H    -0.032046      0.163877      0.165139 
 H16  H    -0.136789     -0.019475     -0.144181 
 H17  H     0.163489      0.016961      0.211086 
 H18  H    -0.173657     -0.150793      0.020984 
 H19  H     0.194961      0.153714      0.043228 
 H20  H    -0.035503     -0.173231     -0.121845 
 H21  H     0.030259      0.183776      0.183467 
 H22  H    -0.228346      0.094706      0.210460 
 H23  H     0.241415     -0.074947     -0.163926 
 H24  H     0.210026     -0.119929      0.083990 
 H25  H    -0.190662      0.244171     -0.058621 
 H26  H     0.108212      0.201915     -0.233926 
 H27  H    -0.058397     -0.204066      0.256324 
 H28  H    -0.194937      0.147766      0.236938 
 H29  H     0.223414     -0.139122     -0.177255 
 H30  H     0.197607     -0.180997      0.056688 
 H31  H    -0.203250      0.221721     -0.121486 
 H32  H     0.172061      0.215681     -0.215127 
 H33  H    -0.119701     -0.220800      0.232172 
 H34  H    -0.220794      0.054971     -0.103549 
 H35  H     0.238906     -0.061386      0.162289 
 H36  H    -0.125477     -0.251418      0.062793 
 H37  H     0.146968      0.226726     -0.037836 
 H38  H     0.044764     -0.124674     -0.195338 
 H39  H    -0.050478      0.134319      0.255921 
 H40  H    -0.228692     -0.012079     -0.118310 
 H41  H     0.256481      0.002452      0.182281 
 H42  H    -0.138731     -0.236472     -0.003554 
 H43  H     0.168457      0.246682      0.024804 
 H44  H    -0.017362     -0.147892     -0.214446 
 H45  H     0.011633      0.157035      0.276008 
 H46  H    -0.238502      0.054509      0.298059 
 H47  H     0.140647     -0.021292     -0.215795 
 H48  H     0.291770     -0.120204      0.033721 
 H49  H    -0.232360      0.138923     -0.000387 
 H50  H     0.055218      0.246119     -0.126871 
 H51  H     0.007430     -0.247631      0.158683 
 H52  H    -0.196599      0.012794     -0.214602 
 H53  H     0.225379     -0.011665      0.278856 
 H54  H    -0.214866     -0.236977      0.091832 
 H55  H     0.263621      0.212698      0.010952 
 H56  H     0.003270     -0.240823     -0.179400 
 H57  H    -0.006247      0.251971      0.240569 
 H58  H    -0.159416      0.034681      0.246067 
 H59  H     0.162971     -0.109695     -0.246089 
 H60  H     0.288732     -0.155141      0.128050 
 H61  H    -0.265500      0.156694     -0.088155 
 H62  H     0.141631      0.278636     -0.149581 
 H63  H    -0.080117     -0.284581      0.171571 
 H64  H    -0.213838      0.102875     -0.175613 
 H65  H     0.248954     -0.098972      0.237207 
 H66  H    -0.240660     -0.149716      0.125702 
 H67  H     0.220958      0.232001     -0.077675 
 H68  H     0.091402     -0.197611     -0.193513 
 H69  H    -0.094338      0.207061      0.257569 
 C70  C    -0.185717      0.003538      0.035234 
 C71  C     0.206781      0.007951      0.030960 
 C72  C     0.011575     -0.194857      0.025974 
 C73  C     0.015456      0.199190      0.028716 
 C74  C     0.000665      0.005591     -0.165680 
 C75  C     0.020632      0.004778      0.226310 
 C76  C    -0.213832      0.003205      0.081520 
 C77  C     0.234337      0.011218     -0.015530 
 C78  C     0.058789     -0.220982      0.021936 
 C79  C    -0.030883      0.227129      0.027120 
 C80  C     0.011218      0.051259     -0.192848 
 C81  C     0.022761     -0.042275      0.253011 
 C82  C    -0.211078      0.003729     -0.012845 
 C83  C     0.232775     -0.001929      0.077631 
 C84  C    -0.035323     -0.222066      0.023733 
 C85  C     0.062758      0.224430      0.020034 
 C86  C    -0.008429     -0.040792     -0.192421 
 C87  C     0.010204      0.050901      0.252942 
 C88  C    -0.128079      0.000953      0.037490 
 C89  C     0.149098      0.004244      0.027879 
 C90  C     0.012214     -0.137116      0.026898 
 C91  C     0.012660      0.141322      0.029748 
 C92  C     0.002600      0.006429     -0.107944 
 C93  C     0.017561      0.002897      0.168513 
 C94  C    -0.154303      0.019391     -0.142508 
 C95  C     0.180371     -0.022130      0.208894 
 C96  C    -0.168497     -0.180217      0.051435 
 C97  C     0.192639      0.168846      0.003435 
 C98  C     0.004551     -0.169365     -0.135976 
 C99  C    -0.009784      0.180173      0.197665 
 C100  C    -0.189458      0.108782      0.220628 
 C101  C     0.208822     -0.099094     -0.176861 
 C102  C     0.214632     -0.161780      0.090614 
 C103  C    -0.200498      0.209207     -0.080850 
 C104  C     0.132141      0.212968     -0.200472 
 C105  C    -0.078720     -0.216938      0.221179 
 C106  C    -0.200663      0.017504     -0.105916 
 C107  C     0.224150     -0.022038      0.169260 
 C108  C    -0.128497     -0.219858      0.034273 
 C109  C     0.154224      0.213605      0.002048 
 C110  C     0.005077     -0.132247     -0.181801 
 C111  C    -0.010731      0.142271      0.242900 
 H112  H    -0.156813      0.112953      0.171392 
 H113  H     0.164441     -0.095257     -0.137430 
 H114  H     0.184722     -0.177124      0.139594 
 H115  H    -0.156257      0.169647     -0.075988 
 H116  H     0.129669      0.170179     -0.159267 
 H117  H    -0.074017     -0.174982      0.179226 
 C118  C    -0.165856      0.073603      0.262170 
 C119  C     0.193901     -0.083795     -0.232419 
 C120  C     0.272388     -0.174839      0.094037 
 C121  C    -0.254004      0.189504     -0.063528 
 C122  C     0.115570      0.266698     -0.181075 
 C123  C    -0.058210     -0.270567      0.205316 
 C124  C    -0.166198      0.037466     -0.198015 
 C125  C     0.196633     -0.039068      0.263629 
 C126  C    -0.221017     -0.204237      0.065266 
 C127  C     0.247481      0.182996     -0.014867 
 C128  C     0.025958     -0.223623     -0.147814 
 C129  C    -0.030435      0.234490      0.210310 
 O130  O     0.010502      0.002432      0.030431 
 O131  O    -0.180334      0.004527     -0.056008 
 O132  O     0.203503     -0.002202      0.121840 
 O133  O    -0.079808     -0.193905      0.029686 
 O134  O     0.106742      0.195142      0.023707 
 O135  O    -0.017728     -0.084756     -0.164553 
 O136  O     0.011989      0.095395      0.224310 
 O137  O    -0.105300      0.027854      0.071768 
 O138  O     0.047220     -0.115435      0.053719 
 O139  O     0.031159      0.040459     -0.087018 
 O140  O    -0.106317     -0.028667      0.005101 
 O141  O    -0.021620     -0.114076     -0.000058 
 O142  O    -0.024690     -0.026564     -0.084108 
 O143  O     0.126480     -0.023574      0.061416 
 O144  O     0.046444      0.117151      0.003654 
 O145  O    -0.009222      0.037411      0.145992 
 O146  O     0.127144      0.028167     -0.009048 
 O147  O    -0.023778      0.120653      0.055600 
 O148  O     0.041200     -0.034079      0.146381 
 Zn149  Zn    -0.446588      0.041392      0.079589 
 Zn150  Zn    -0.445335     -0.043090     -0.008720 
 Zn151  Zn     0.466944      0.042562     -0.006985 
 Zn152  Zn     0.467457     -0.045368      0.078111 
 H153  H     0.306904     -0.017785      0.113474 
 H154  H    -0.285328      0.001811     -0.051817 
 H155  H    -0.412158     -0.201797     -0.009388 
 H156  H     0.428076      0.203703      0.031385 
 H157  H     0.494820      0.081598     -0.167136 
 H158  H     0.488363     -0.083139      0.237839 
 H159  H     0.372711      0.047322     -0.133091 
 H160  H    -0.357511     -0.044479      0.188832 
 H161  H     0.371379     -0.132619      0.086021 
 H162  H    -0.328725      0.129555     -0.011551 
 H163  H    -0.432495     -0.162936     -0.106157 
 H164  H     0.476623      0.152180      0.166704 
 H165  H     0.354765     -0.015934     -0.150391 
 H166  H    -0.347125      0.020413      0.205529 
 H167  H     0.381561     -0.144044      0.019887 
 H168  H    -0.308959      0.142906      0.051999 
 H169  H    -0.495843     -0.183617     -0.119436 
 H170  H    -0.460328      0.172696      0.180943 
 H171  H     0.268822      0.079428      0.231663 
 H172  H    -0.230567     -0.088460     -0.175783 
 H173  H    -0.329162     -0.205865      0.069941 
 H174  H     0.311979      0.258184     -0.064357 
 H175  H    -0.407301      0.193784     -0.218954 
 H176  H     0.412644     -0.213762      0.284968 
 H177  H     0.287840      0.143527      0.243682 
 H178  H    -0.252638     -0.150949     -0.191053 
 H179  H    -0.303563     -0.224202      0.130470 
 H180  H     0.299789      0.237549     -0.127951 
 H181  H    -0.343120      0.207792     -0.201632 
 H182  H     0.349399     -0.228753      0.265262 
 H183  H     0.283364      0.064715     -0.099256 
 H184  H    -0.262800     -0.054708      0.167244 
 H185  H     0.364549     -0.231717      0.099181 
 H186  H    -0.354522      0.223485     -0.023096 
 H187  H    -0.423113     -0.129127     -0.196477 
 H188  H     0.461048      0.131491      0.260592 
 H189  H     0.263294      0.001922     -0.120164 
 H190  H    -0.251583      0.010582      0.187100 
 H191  H     0.383450     -0.238173      0.033341 
 H192  H    -0.333854      0.236034      0.041645 
 H193  H    -0.486141     -0.153049     -0.212034 
 H194  H    -0.475859      0.154844      0.276085 
 H195  H     0.372431      0.026470      0.282327 
 H196  H    -0.341418     -0.031092     -0.207378 
 H197  H    -0.238733     -0.220544      0.030117 
 H198  H     0.272528      0.148812     -0.010358 
 H199  H    -0.458584      0.244524     -0.114065 
 H200  H     0.471088     -0.246390      0.178148 
 H201  H     0.291756      0.018749     -0.215519 
 H202  H    -0.290929     -0.006953      0.279748 
 H203  H     0.293388     -0.185086      0.013288 
 H204  H    -0.240924      0.203842      0.018119 
 H205  H    -0.462882     -0.247762     -0.183823 
 H206  H    -0.494400      0.246591      0.232794 
 H207  H     0.349792      0.114557      0.311242 
 H208  H    -0.322819     -0.115627     -0.245562 
 H209  H    -0.265377     -0.132811      0.064541 
 H210  H     0.239831      0.169678     -0.097212 
 H211  H    -0.372399      0.275458     -0.139923 
 H212  H     0.384217     -0.282061      0.191965 
 H213  H     0.279811      0.108195     -0.172544 
 H214  H    -0.265572     -0.096494      0.247662 
 H215  H     0.276851     -0.216596      0.101136 
 H216  H    -0.282402      0.220324     -0.070984 
 H217  H    -0.376844     -0.200734     -0.204189 
 H218  H     0.416303      0.205675      0.254030 
 C219  C     0.313911     -0.007097      0.030727 
 C220  C    -0.293338      0.002813      0.031652 
 C221  C    -0.484582     -0.197985      0.033441 
 C222  C    -0.488749      0.194029      0.034515 
 C223  C    -0.495047     -0.001475     -0.160651 
 C224  C    -0.493858     -0.001354      0.232072 
 C225  C     0.286404     -0.010104      0.077297 
 C226  C    -0.265231      0.002705     -0.014629 
 C227  C    -0.443862     -0.223333      0.008331 
 C228  C     0.465685      0.223053      0.031244 
 C229  C    -0.498766      0.045323     -0.187787 
 C230  C     0.494625     -0.046963      0.258811 
 C231  C     0.287943      0.003119     -0.015880 
 C232  C    -0.267949      0.002303      0.079646 
 C233  C     0.475729     -0.227533      0.055892 
 C234  C    -0.440126      0.218140      0.032830 
 C235  C    -0.485448     -0.047949     -0.187183 
 C236  C    -0.488106      0.045480      0.258895 
 C237  C    -0.351061      0.004132      0.029469 
 C238  C     0.371717     -0.005474      0.033296 
 C239  C    -0.492945      0.136718      0.039201 
 C240  C    -0.484717     -0.139912      0.034595 
 C241  C    -0.489881     -0.003575      0.174461 
 C242  C    -0.492712      0.000588     -0.102853 
 C243  C     0.339935      0.023905     -0.147117 
 C244  C    -0.328747     -0.018092      0.205970 
 C245  C     0.362160     -0.159748      0.054455 
 C246  C    -0.311899      0.160009      0.013030 
 C247  C    -0.457389     -0.178432     -0.137100 
 C248  C    -0.499918      0.171202      0.196761 
 C249  C     0.302091      0.103376      0.243191 
 C250  C    -0.265679     -0.110900     -0.184613 
 C251  C    -0.310695     -0.190690      0.105154 
 C252  C     0.302978      0.223759     -0.087759 
 C253  C    -0.382888      0.206378     -0.186403 
 C254  C     0.388973     -0.222618      0.250708 
 C255  C     0.296616      0.024969     -0.107028 
 C256  C    -0.280756     -0.016316      0.171653 
 C257  C     0.385085     -0.212488      0.067230 
 C258  C    -0.348732      0.206022      0.015339 
 C259  C    -0.461435     -0.138624     -0.180463 
 C260  C    -0.499639      0.137522      0.245308 
 H261  H     0.344907      0.098774      0.202073 
 H262  H    -0.301908     -0.110062     -0.137557 
 H263  H    -0.348536     -0.153621      0.131981 
 H264  H     0.347948      0.185079     -0.084315 
 H265  H    -0.385353      0.165615     -0.143059 
 H266  H     0.388740     -0.175782      0.214083 
 C267  C     0.318597      0.088501      0.298469 
 C268  C    -0.289818     -0.090848     -0.235106 
 C269  C    -0.258697     -0.165835      0.090631 
 C270  C     0.250235      0.201817     -0.071277 
 C271  C    -0.398928      0.261439     -0.170167 
 C272  C     0.408047     -0.273346      0.226167 
 C273  C     0.323830      0.042807     -0.201239 
 C274  C    -0.319178     -0.033647      0.262554 
 C275  C     0.303389     -0.159383      0.045744 
 C276  C    -0.257145      0.173065     -0.006344 
 C277  C    -0.436900     -0.231679     -0.154209 
 C278  C     0.480668      0.226992      0.204492 
 O279  O    -0.489499     -0.001352      0.035417 
 O280  O     0.317004      0.003491     -0.060208 
 O281  O    -0.298930      0.001482      0.122511 
 O282  O     0.437414     -0.203890      0.083352 
 O283  O    -0.397260      0.187065      0.034248 
 O284  O    -0.483723     -0.092707     -0.158823 
 O285  O    -0.477730      0.088834      0.230398 
 O286  O    -0.372785     -0.020548     -0.007021 
 O287  O     0.470353      0.115060      0.014796 
 O288  O     0.482790     -0.037494      0.151803 
 O289  O    -0.373999      0.030299      0.064025 
 O290  O    -0.460198      0.114236      0.067911 
 O291  O    -0.459197      0.027758      0.152519 
 O292  O     0.394927      0.021923     -0.000165 
 O293  O     0.480361     -0.117646      0.060947 
 O294  O    -0.467195     -0.034665     -0.080151 
 O295  O     0.393256     -0.030857      0.069480 
 O296  O    -0.449590     -0.116978      0.008913 
 O297  O     0.484390      0.038131     -0.080837 
 Zn298  Zn     0.061581     -0.453303      0.057352 
 Zn299  Zn     0.062240      0.459782     -0.028981 
 Zn300  Zn    -0.027852     -0.456360     -0.026279 
 Zn301  Zn    -0.021406      0.457246      0.060327 
 H302  H    -0.179914      0.480750      0.098585 
 H303  H     0.224618      0.495875     -0.067096 
 H304  H     0.100192      0.297467      0.002976 
 H305  H    -0.071055     -0.297285      0.013144 
 H306  H    -0.003814     -0.418004     -0.186012 
 H307  H     0.010449      0.416069      0.218353 
 H308  H    -0.120960     -0.466090     -0.145278 
 H309  H     0.147672      0.458519      0.173951 
 H310  H    -0.144824      0.367284      0.062181 
 H311  H     0.178873     -0.338698     -0.042105 
 H312  H     0.065484      0.341708     -0.119011 
 H313  H     0.002400     -0.343296      0.148801 
 H314  H    -0.137217      0.471503     -0.166841 
 H315  H     0.160004     -0.477185      0.191840 
 H316  H    -0.164828      0.351087     -0.000786 
 H317  H     0.195529     -0.348511      0.023126 
 H318  H     0.001680      0.322717     -0.132624 
 H319  H     0.063062     -0.322021      0.170406 
 H320  H    -0.218394     -0.423230      0.210106 
 H321  H     0.274370      0.402929     -0.184933 
 H322  H     0.212943      0.254114      0.105533 
 H323  H    -0.192577     -0.296344     -0.028159 
 H324  H     0.081894     -0.290910     -0.214136 
 H325  H    -0.085387      0.298511      0.282666 
 H326  H    -0.202346     -0.358347      0.222697 
 H327  H     0.251608      0.340124     -0.197511 
 H328  H     0.223974      0.273847      0.169587 
 H329  H    -0.225352     -0.324271     -0.080969 
 H330  H     0.144005     -0.275026     -0.191546 
 H331  H    -0.147284      0.285203      0.257862 
 H332  H    -0.212547     -0.452523     -0.114094 
 H333  H     0.241829      0.445993      0.151481 
 H334  H    -0.112338      0.277352      0.076703 
 H335  H     0.152385     -0.246123     -0.019880 
 H336  H     0.078587      0.370255     -0.210349 
 H337  H    -0.020771     -0.370979      0.239517 
 H338  H    -0.229136      0.484427     -0.136575 
 H339  H     0.254849     -0.489288      0.171790 
 H340  H    -0.135982      0.258635      0.014401 
 H341  H     0.161822     -0.262111      0.046943 
 H342  H     0.016014      0.346177     -0.227483 
 H343  H     0.040331     -0.347757      0.261698 
 H344  H    -0.120499     -0.473514      0.267969 
 H345  H     0.167756      0.462400     -0.219893 
 H346  H     0.260851      0.359384      0.052728 
 H347  H    -0.281966     -0.383972      0.045064 
 H348  H     0.019349     -0.248306     -0.113723 
 H349  H    -0.025472      0.259068      0.175856 
 H350  H    -0.198505     -0.491455     -0.231751 
 H351  H     0.216139      0.492747      0.264827 
 H352  H    -0.230175      0.289035      0.034584 
 H353  H     0.242752     -0.263348     -0.045216 
 H354  H     0.033337      0.252583     -0.190828 
 H355  H     0.021566     -0.254034      0.224894 
 H356  H    -0.145866     -0.384770      0.296057 
 H357  H     0.181766      0.374518     -0.253836 
 H358  H     0.290043      0.337379      0.140940 
 H359  H    -0.193081     -0.387604      0.014045 
 H360  H     0.106791     -0.212012     -0.128760 
 H361  H    -0.111891      0.223950      0.194078 
 H362  H    -0.214805     -0.405332     -0.181889 
 H363  H     0.238277      0.402891      0.227461 
 H364  H    -0.182854      0.273386      0.121777 
 H365  H     0.266892     -0.352452     -0.077187 
 H366  H     0.121564      0.294696     -0.212542 
 H367  H    -0.066565     -0.297730      0.237004 
 C368  C    -0.176610      0.484719      0.015429 
 C369  C     0.214672     -0.498990      0.015968 
 C370  C     0.017081      0.305571      0.008252 
 C371  C     0.012465     -0.301943      0.012833 
 C372  C     0.006980      0.499268     -0.180074 
 C373  C     0.027036      0.498324      0.212096 
 C374  C    -0.202329      0.484287      0.062878 
 C375  C     0.243848      0.496954     -0.029437 
 C376  C     0.063407      0.277573      0.009157 
 C377  C    -0.034781     -0.275752      0.016099 
 C378  C     0.003016     -0.454029     -0.207084 
 C379  C     0.016212      0.452485      0.239013 
 C380  C    -0.204584      0.489770     -0.030789 
 C381  C     0.238962     -0.499097      0.064569 
 C382  C    -0.030265      0.280398      0.016899 
 C383  C     0.059344     -0.274720      0.015023 
 C384  C     0.016160      0.452808     -0.206481 
 C385  C     0.033131     -0.454937      0.239146 
 C386  C     0.157169     -0.494772      0.011734 
 C387  C    -0.119339      0.492258      0.017162 
 C388  C     0.011905     -0.359617      0.015833 
 C389  C     0.020348      0.363225      0.011548 
 C390  C     0.025789      0.497694      0.154201 
 C391  C     0.011300     -0.498253     -0.122527 
 C392  C    -0.152937     -0.489235     -0.161454 
 C393  C     0.177285      0.483811      0.191236 
 C394  C    -0.160385      0.335350      0.038588 
 C395  C     0.192730     -0.318666     -0.007229 
 C396  C     0.040758      0.325068     -0.149524 
 C397  C     0.022318     -0.326106      0.182317 
 C398  C    -0.187100     -0.398096      0.224362 
 C399  C     0.239040      0.380603     -0.193129 
 C400  C     0.223324      0.287854      0.129352 
 C401  C    -0.198334     -0.332843     -0.049171 
 C402  C     0.103340     -0.278771     -0.179402 
 C403  C    -0.106268      0.288676      0.246857 
 C404  C    -0.197152     -0.491321     -0.122389 
 C405  C     0.224858      0.484781      0.156281 
 C406  C    -0.121143      0.291245      0.037392 
 C407  C     0.153117     -0.278033      0.008390 
 C408  C     0.039464      0.361961     -0.195622 
 C409  C     0.019522     -0.363350      0.227971 
 H410  H    -0.140232     -0.402286      0.187893 
 H411  H     0.202261      0.384245     -0.146573 
 H412  H     0.180978      0.329387      0.124241 
 H413  H    -0.146582     -0.351012     -0.072012 
 H414  H     0.099555     -0.321345     -0.137984 
 H415  H    -0.100456      0.333102      0.207790 
 C416  C    -0.175346     -0.411664      0.281172 
 C417  C     0.215785      0.398527     -0.244853 
 C418  C     0.278190      0.305921      0.114759 
 C419  C    -0.222750     -0.372893     -0.012700 
 C420  C     0.083759     -0.225261     -0.162061 
 C421  C    -0.087575      0.235840      0.226957 
 C422  C    -0.168144     -0.467133     -0.214573 
 C423  C     0.187442      0.466687      0.247340 
 C424  C    -0.214097      0.319750      0.059258 
 C425  C     0.246548     -0.296272     -0.018433 
 C426  C     0.059309      0.269927     -0.161975 
 C427  C     0.000019     -0.271922      0.192891 
 O428  O     0.018603     -0.498152      0.015402 
 O429  O    -0.176651      0.487147     -0.075704 
 O430  O     0.207525     -0.496540      0.107089 
 O431  O    -0.074333      0.309859      0.014269 
 O432  O     0.103771     -0.303092      0.009819 
 O433  O     0.016653      0.408819     -0.177024 
 O434  O     0.043122     -0.410823      0.211711 
 O435  O     0.135428      0.480042     -0.024442 
 O436  O    -0.024155     -0.382796     -0.008154 
 O437  O     0.000514      0.461389      0.132846 
 O438  O     0.134481     -0.465752      0.044101 
 O439  O     0.046728     -0.381001      0.042977 
 O440  O     0.050126     -0.466879      0.130569 
 O441  O    -0.098974     -0.479709     -0.017602 
 O442  O    -0.012855      0.385628      0.039872 
 O443  O     0.040389      0.468849     -0.100508 
 O444  O    -0.095652      0.471168      0.054735 
 O445  O     0.056778      0.385332     -0.013039 
 O446  O    -0.013633     -0.462293     -0.100212 
 Zn447  Zn     0.476271      0.453302     -0.020867 
 Zn448  Zn     0.474536     -0.461744      0.066364 
 Zn449  Zn    -0.436618      0.453291      0.065059 
 Zn450  Zn    -0.438299     -0.459577     -0.021473 
 H451  H     0.312210      0.499735      0.105344 
 H452  H    -0.280498     -0.499723     -0.064946 
 H453  H    -0.399587      0.291501      0.029650 
 H454  H     0.445644     -0.303370      0.071356 
 H455  H    -0.458823     -0.424264     -0.180919 
 H456  H    -0.467907      0.413153      0.225015 
 H457  H     0.388343     -0.465158     -0.136715 
 H458  H    -0.332955      0.444099      0.183093 
 H459  H     0.356266      0.365837      0.067321 
 H460  H    -0.302503     -0.303038     -0.039579 
 H461  H    -0.449492      0.340201     -0.111868 
 H462  H     0.463452     -0.341872      0.161609 
 H463  H     0.376143      0.470332     -0.153996 
 H464  H    -0.307827     -0.499618      0.212461 
 H465  H     0.339320      0.353550      0.002786 
 H466  H    -0.327301     -0.366779     -0.039606 
 H467  H     0.486934      0.319838     -0.123854 
 H468  H    -0.473960     -0.322083      0.179355 
 H469  H     0.250521     -0.415041      0.223020 
 H470  H    -0.241998      0.408662     -0.179905 
 H471  H    -0.273610      0.242969      0.111542 
 H472  H     0.353950     -0.295304     -0.020275 
 H473  H    -0.388652     -0.293204     -0.230579 
 H474  H     0.430121      0.298553      0.271572 
 H475  H     0.268132     -0.350915      0.236836 
 H476  H    -0.264836      0.346067     -0.192872 
 H477  H    -0.258200      0.262579      0.174698 
 H478  H     0.331557     -0.280459     -0.082880 
 H479  H    -0.324444     -0.276244     -0.216359 
 H480  H     0.366807      0.285427      0.250819 
 H481  H     0.293641     -0.453065     -0.114608 
 H482  H    -0.243509      0.428922      0.142501 
 H483  H     0.379149      0.270750      0.078866 
 H484  H    -0.349575     -0.285740      0.044278 
 H485  H    -0.437702      0.362065     -0.206017 
 H486  H     0.447455     -0.377115      0.249891 
 H487  H     0.281795      0.481336     -0.133091 
 H488  H    -0.225181      0.490944      0.167141 
 H489  H     0.362824      0.260244      0.012550 
 H490  H    -0.375791     -0.349230      0.041533 
 H491  H     0.498519      0.339170     -0.219212 
 H492  H    -0.491322     -0.352839      0.271249 
 H493  H     0.361150     -0.465239      0.262543 
 H494  H    -0.344514      0.467916     -0.226221 
 H495  H    -0.240522      0.352948      0.055252 
 H496  H     0.263027     -0.280601      0.017590 
 H497  H    -0.439196     -0.258309     -0.121027 
 H498  H     0.486006      0.248088      0.167857 
 H499  H     0.318548     -0.499975     -0.226350 
 H500  H    -0.267708      0.389403      0.227587 
 H501  H     0.267667      0.294974      0.032112 
 H502  H    -0.255974     -0.321052      0.044009 
 H503  H    -0.481245      0.246815     -0.178084 
 H504  H     0.489135     -0.258472      0.242475 
 H505  H     0.336397     -0.379507      0.296796 
 H506  H    -0.326638      0.379539     -0.257924 
 H507  H    -0.204294      0.334896      0.141039 
 H508  H     0.289278     -0.368510     -0.014904 
 H509  H    -0.354623     -0.220439     -0.143033 
 H510  H     0.398566      0.218465      0.189595 
 H511  H     0.296575     -0.410272     -0.190383 
 H512  H    -0.348411      0.410255      0.278406 
 H513  H     0.305029      0.273727      0.122186 
 H514  H    -0.235279     -0.406277     -0.035802 
 H515  H    -0.393363      0.287202     -0.203596 
 H516  H     0.400771     -0.304811      0.253801 
 C517  C     0.322263      0.494743      0.022223 
 C518  C    -0.284097      0.496700      0.018761 
 C519  C    -0.482720      0.301137      0.026522 
 C520  C    -0.482344     -0.306955      0.028013 
 C521  C    -0.478539      0.494386     -0.174374 
 C522  C    -0.477694      0.496251      0.219079 
 C523  C     0.293048      0.498558      0.067670 
 C524  C    -0.258508      0.496251     -0.029048 
 C525  C    -0.437182      0.272113      0.029715 
 C526  C     0.476821     -0.281606      0.052998 
 C527  C    -0.467581     -0.460121     -0.201540 
 C528  C    -0.475908      0.449101      0.245766 
 C529  C     0.297884      0.494386     -0.026320 
 C530  C    -0.256083      0.490359      0.064778 
 C531  C     0.468644      0.277020      0.027810 
 C532  C    -0.441921     -0.277361      0.006858 
 C533  C    -0.487500      0.447941     -0.201046 
 C534  C    -0.488883     -0.457653      0.245633 
 C535  C     0.379966      0.492720      0.025873 
 C536  C    -0.341914      0.498188      0.019604 
 C537  C    -0.478383      0.358406      0.021414 
 C538  C    -0.483932     -0.364892      0.024415 
 C539  C    -0.481024      0.496952     -0.116715 
 C540  C    -0.478460      0.494808      0.161173 
 C541  C     0.358671     -0.490750     -0.153523 
 C542  C    -0.297066      0.461805      0.197870 
 C543  C     0.340024      0.335981      0.041656 
 C544  C    -0.314830     -0.334932     -0.014168 
 C545  C    -0.474148      0.321621     -0.141231 
 C546  C     0.486402     -0.326923      0.194287 
 C547  C     0.283761     -0.390360      0.232961 
 C548  C    -0.276864      0.386899     -0.190989 
 C549  C    -0.264669      0.277222      0.135209 
 C550  C     0.337046     -0.312469     -0.055305 
 C551  C    -0.362669     -0.282492     -0.198602 
 C552  C     0.407291      0.286772      0.237605 
 C553  C     0.311288     -0.491664     -0.118408 
 C554  C    -0.258139      0.467214      0.154275 
 C555  C     0.376166      0.289335      0.040650 
 C556  C    -0.360708     -0.317181      0.017824 
 C557  C    -0.476375      0.355960     -0.189190 
 C558  C     0.486969     -0.367130      0.237486 
 H559  H     0.323024     -0.390821      0.188364 
 H560  H    -0.318230      0.392649     -0.148535 
 H561  H    -0.311675      0.313638      0.135972 
 H562  H     0.375690     -0.351405     -0.077997 
 H563  H    -0.358637     -0.327681     -0.160130 
 H564  H     0.412188      0.328343      0.195243 
 C565  C     0.305756     -0.406825      0.285693 
 C566  C    -0.294053      0.403960     -0.245417 
 C567  C    -0.213969      0.301802      0.116046 
 C568  C     0.284135     -0.335940     -0.041896 
 C569  C    -0.380972     -0.231148     -0.174736 
 C570  C     0.423703      0.231848      0.221285 
 C571  C     0.347790     -0.474030     -0.209545 
 C572  C    -0.275312      0.428736      0.242044 
 C573  C     0.284120      0.324136      0.058335 
 C574  C    -0.268912     -0.352947      0.018923 
 C575  C    -0.455034      0.266032     -0.150667 
 C576  C     0.465492     -0.273550      0.210478 
 O577  O    -0.480704      0.496816      0.022561 
 O578  O     0.329188      0.491399     -0.068866 
 O579  O    -0.282193      0.491524      0.110802 
 O580  O     0.425999      0.308354      0.025679 
 O581  O    -0.400049     -0.298897     -0.016819 
 O582  O    -0.497397      0.404485     -0.172612 
 O583  O    -0.488596     -0.412691      0.217529 
 O584  O     0.401277     -0.482180      0.062357 
 O585  O    -0.441507      0.380223      0.045433 
 O586  O    -0.454187     -0.468155     -0.094948 
 O587  O     0.403399      0.465581     -0.007562 
 O588  O     0.488733      0.380723     -0.007242 
 O589  O     0.489855      0.464856     -0.093813 
 O590  O    -0.364467      0.472450      0.054814 
 O591  O    -0.450541     -0.387085     -0.003938 
 O592  O     0.494702     -0.471047      0.138265 
 O593  O    -0.364152     -0.475381     -0.015366 
 O594  O     0.481016     -0.387732      0.050258 
 O595  O    -0.453053      0.458867      0.139218 
 Zn596  Zn     0.047711      0.045414     -0.427188 
 Zn597  Zn     0.049445     -0.039540      0.485581 
 Zn598  Zn    -0.039400      0.045425      0.486886 
 Zn599  Zn    -0.037719     -0.041707     -0.426582 
 H600  H    -0.195520     -0.001561     -0.383109 
 H601  H     0.211772     -0.001020      0.446602 
 H602  H     0.078338     -0.197914      0.480589 
 H603  H    -0.076431      0.207214     -0.477705 
 H604  H    -0.008111      0.085563      0.326930 
 H605  H    -0.017196     -0.077021     -0.267135 
 H606  H    -0.143063      0.054617      0.368852 
 H607  H     0.135639     -0.036126     -0.311339 
 H608  H    -0.173515     -0.198247     -0.408475 
 H609  H     0.167716      0.132879      0.484624 
 H610  H     0.060530     -0.159412      0.390337 
 H611  H    -0.026526      0.158515     -0.336186 
 H612  H    -0.168192     -0.001666      0.339485 
 H613  H     0.147839      0.028384     -0.294059 
 H614  H    -0.148717     -0.134505     -0.408448 
 H615  H     0.184662      0.145166     -0.450841 
 H616  H    -0.002059     -0.179201      0.372591 
 H617  H     0.037048      0.178878     -0.324200 
 H618  H    -0.234020      0.090054     -0.268150 
 H619  H     0.273461     -0.086243      0.328925 
 H620  H     0.170032     -0.205980     -0.427780 
 H621  H    -0.202408      0.255747      0.440404 
 H622  H     0.093861      0.200163      0.280373 
 H623  H    -0.087367     -0.208080     -0.217475 
 H624  H    -0.211182      0.152649     -0.255182 
 H625  H     0.255850     -0.150370      0.315109 
 H626  H     0.192425     -0.220825     -0.365175 
 H627  H    -0.217818      0.236137      0.377247 
 H628  H     0.157175      0.213289      0.301127 
 H629  H    -0.151574     -0.225041     -0.231695 
 H630  H    -0.232509      0.069794      0.409444 
 H631  H     0.230341     -0.048219     -0.333447 
 H632  H    -0.126443     -0.215544     -0.492333 
 H633  H     0.144832      0.227966      0.473080 
 H634  H     0.076527     -0.124169      0.302054 
 H635  H    -0.038316      0.136651     -0.242038 
 H636  H    -0.250837      0.007771      0.384804 
 H637  H     0.242187      0.017380     -0.314963 
 H638  H    -0.100227     -0.152054     -0.489588 
 H639  H     0.161158      0.238472     -0.460605 
 H640  H     0.015304     -0.148445      0.280696 
 H641  H     0.025463      0.159546     -0.228842 
 H642  H    -0.131505      0.030800     -0.221833 
 H643  H     0.162832     -0.036045      0.289403 
 H644  H     0.260955     -0.220683     -0.465644 
 H645  H    -0.235496      0.145768      0.496694 
 H646  H     0.037975      0.250627      0.384088 
 H647  H    -0.036822     -0.242975     -0.327028 
 H648  H    -0.208310      0.109313      0.324358 
 H649  H     0.205434     -0.001309     -0.221704 
 H650  H    -0.220044     -0.180232     -0.492063 
 H651  H     0.256315      0.203742     -0.480166 
 H652  H     0.034847     -0.242812      0.309471 
 H653  H     0.005227      0.251901     -0.269970 
 H654  H    -0.149380      0.119177     -0.190131 
 H655  H     0.187584     -0.121778      0.255149 
 H656  H     0.234703     -0.132774     -0.433151 
 H657  H    -0.271724      0.163820      0.410907 
 H658  H     0.125416      0.280251      0.362351 
 H659  H    -0.121395     -0.280846     -0.305022 
 H660  H    -0.127607      0.088460      0.273539 
 H661  H     0.227406     -0.091013     -0.257671 
 H662  H    -0.240739     -0.095007     -0.412253 
 H663  H     0.218953      0.224989      0.429759 
 H664  H     0.123211     -0.196473      0.298144 
 H665  H    -0.082655      0.211514     -0.244459 
 C666  C    -0.191921      0.002016     -0.466815 
 C667  C     0.201719      0.003973     -0.470278 
 C668  C     0.006326     -0.194329     -0.476067 
 C669  C     0.006702      0.197578     -0.474577 
 C670  C     0.001676      0.002465      0.332867 
 C671  C     0.002521      0.004330     -0.273680 
 C672  C    -0.217510      0.002465     -0.419007 
 C673  C     0.230934      0.000158      0.484276 
 C674  C     0.047161     -0.219679      0.498947 
 C675  C    -0.038836      0.226603     -0.477770 
 C676  C    -0.000111      0.049615      0.306180 
 C677  C    -0.008437     -0.041163     -0.246514 
 C678  C    -0.219936      0.008357      0.487167 
 C679  C     0.226098      0.004330     -0.421734 
 C680  C    -0.034097     -0.223923     -0.454912 
 C681  C     0.055338      0.221696     -0.475864 
 C682  C     0.012865     -0.043631      0.306313 
 C683  C     0.011482      0.050775     -0.247008 
 C684  C     0.144016      0.005996     -0.473928 
 C685  C    -0.134104      0.000527     -0.467659 
 C686  C     0.002365      0.140310     -0.469469 
 C687  C     0.007914     -0.136392     -0.472470 
 C688  C     0.005006      0.001763     -0.331340 
 C689  C     0.002442      0.003908      0.390773 
 C690  C    -0.178952      0.036911      0.354076 
 C691  C     0.165311     -0.010534     -0.294532 
 C692  C    -0.161188     -0.166353     -0.433887 
 C693  C     0.183958      0.162735     -0.489710 
 C694  C     0.037580     -0.174361      0.357659 
 C695  C    -0.001871      0.177095     -0.306823 
 C696  C    -0.199154      0.111817     -0.257065 
 C697  C     0.240221     -0.110924      0.318985 
 C698  C     0.186936     -0.188815     -0.392750 
 C699  C    -0.211349      0.221494      0.416736 
 C700  C     0.116691      0.211944      0.314341 
 C701  C    -0.113349     -0.218792     -0.249453 
 C702  C    -0.217879      0.031502      0.397670 
 C703  C     0.212693     -0.009621     -0.329647 
 C704  C    -0.115310     -0.184103     -0.465879 
 C705  C     0.147816      0.209381     -0.488704 
 C706  C     0.037013     -0.134154      0.314460 
 C707  C     0.000357      0.142756     -0.258864 
 H708  H    -0.157788      0.106067     -0.299519 
 H709  H     0.200958     -0.110463      0.363582 
 H710  H     0.148292     -0.149879     -0.370058 
 H711  H    -0.164343      0.185078      0.415974 
 H712  H     0.111794      0.170372      0.356703 
 H713  H    -0.117382     -0.173604     -0.287924 
 C714  C    -0.181965      0.094756     -0.202637 
 C715  C     0.218225     -0.094459      0.266252 
 C716  C     0.239847     -0.165344     -0.406159 
 C717  C    -0.262049      0.196914      0.435899 
 C718  C     0.100279      0.266868      0.330660 
 C719  C    -0.095046     -0.270137     -0.273319 
 C720  C    -0.200706      0.069980      0.309901 
 C721  C     0.176192     -0.027254     -0.238510 
 C722  C    -0.207106     -0.148337     -0.466977 
 C723  C     0.239862      0.174579      0.493611 
 C724  C     0.058490     -0.227735      0.341467 
 C725  C    -0.020984      0.232684     -0.297388 
 O726  O     0.004686      0.001899     -0.470615 
 O727  O    -0.193825      0.007192      0.441143 
 O728  O     0.194794      0.007316     -0.379188 
 O729  O    -0.075969     -0.202387     -0.431236 
 O730  O     0.097983      0.190362     -0.473734 
 O731  O     0.012578     -0.088593      0.334417 
 O732  O     0.021379      0.094230     -0.275442 
 O733  O     0.122704     -0.019104      0.489589 
 O734  O    -0.034511      0.118493     -0.493487 
 O735  O    -0.021831     -0.033129     -0.353106 
 O736  O     0.120583      0.033135     -0.440492 
 O737  O     0.035249      0.117992     -0.440813 
 O738  O     0.034127      0.033859     -0.354241 
 O739  O    -0.111551      0.026266      0.497132 
 O740  O    -0.025477     -0.114199     -0.444117 
 O741  O     0.029280     -0.030237      0.413680 
 O742  O    -0.111866     -0.025903     -0.432688 
 O743  O     0.042966     -0.113552     -0.498313 
 O744  O    -0.022965      0.039849      0.412728 
 Zn745  Zn     0.462401     -0.047981      0.494593 
 Zn746  Zn     0.461741      0.038934     -0.419073 
 Zn747  Zn    -0.448166     -0.044924     -0.421775 
 Zn748  Zn    -0.454612      0.041470      0.491619 
 H749  H     0.299363      0.002841     -0.380959 
 H750  H    -0.296104      0.017966      0.453361 
 H751  H    -0.404964     -0.203999     -0.461199 
 H752  H     0.423790      0.201249     -0.451031 
 H753  H    -0.486467      0.082647      0.333592 
 H754  H    -0.472204     -0.083281     -0.262043 
 H755  H     0.376310      0.040197      0.377995 
 H756  H    -0.355058     -0.035194     -0.302777 
 H757  H     0.345109     -0.162586     -0.405949 
 H758  H    -0.331194      0.131432      0.489765 
 H759  H    -0.478418     -0.157988      0.403145 
 H760  H     0.458497      0.157008     -0.329044 
 H761  H     0.363977     -0.024099      0.360106 
 H762  H    -0.338801      0.027213     -0.281213 
 H763  H     0.328453     -0.152773     -0.471181 
 H764  H    -0.311190      0.147628     -0.447268 
 H765  H     0.460920     -0.179264      0.381539 
 H766  H    -0.477698      0.175998     -0.315431 
 H767  H     0.249612      0.095786     -0.263122 
 H768  H    -0.257624     -0.078055      0.341840 
 H769  H    -0.283441     -0.204941     -0.419896 
 H770  H     0.311039      0.244602      0.446413 
 H771  H    -0.390631      0.200204      0.269280 
 H772  H     0.442088     -0.210374     -0.233919 
 H773  H     0.272374      0.158592     -0.250543 
 H774  H    -0.273672     -0.142937      0.329249 
 H775  H    -0.250666     -0.177013     -0.367085 
 H776  H     0.300008      0.224869      0.382359 
 H777  H    -0.328734      0.213513      0.294083 
 H778  H     0.379976     -0.226258     -0.256509 
 H779  H     0.282153      0.052723      0.400465 
 H780  H    -0.263471     -0.048762     -0.333961 
 H781  H     0.371597     -0.255161     -0.428175 
 H782  H    -0.363680      0.221364      0.475242 
 H783  H    -0.455247     -0.130305      0.312428 
 H784  H     0.445395      0.128461     -0.237706 
 H785  H     0.269133     -0.011996      0.380156 
 H786  H    -0.246882      0.014288     -0.311480 
 H787  H     0.362160     -0.239173     -0.494997 
 H788  H    -0.340036      0.240081     -0.462456 
 H789  H     0.483651     -0.153527      0.290248 
 H790  H    -0.492032      0.152539     -0.220571 
 H791  H     0.356226      0.036315     -0.228161 
 H792  H    -0.355519     -0.027771      0.283976 
 H793  H    -0.194052     -0.117312     -0.493119 
 H794  H     0.263131      0.139332      0.499218 
 H795  H    -0.450546      0.239648      0.376089 
 H796  H    -0.495368     -0.252979     -0.334331 
 H797  H     0.307843      0.005969      0.287119 
 H798  H    -0.277513     -0.009829     -0.216304 
 H799  H     0.281230     -0.237936     -0.402839 
 H800  H    -0.245843      0.209681     -0.482639 
 H801  H    -0.497584     -0.247250      0.327051 
 H802  H     0.490645      0.246133     -0.257227 
 H803  H     0.342215      0.124198     -0.194218 
 H804  H    -0.330152     -0.116515      0.255888 
 H805  H    -0.282937     -0.113681     -0.462099 
 H806  H     0.233939      0.161336      0.411006 
 H807  H    -0.364127      0.274766      0.357868 
 H808  H     0.417191     -0.289272     -0.319294 
 H809  H     0.285705      0.095825      0.324485 
 H810  H    -0.261213     -0.095953     -0.266165 
 H811  H     0.257090     -0.148832     -0.370867 
 H812  H    -0.293164      0.225330      0.430169 
 H813  H    -0.409453     -0.203554      0.314942 
 H814  H     0.402418      0.204020     -0.235512 
 C815  C     0.309310     -0.002295     -0.464022 
 C816  C    -0.299408      0.013997     -0.463483 
 C817  C    -0.488483     -0.199341     -0.460887 
 C818  C    -0.493100      0.193145     -0.456306 
 C819  C     0.496946      0.000392      0.339850 
 C820  C    -0.482998     -0.000552     -0.267981 
 C821  C     0.280134      0.001762     -0.418617 
 C822  C    -0.273689      0.014428      0.489068 
 C823  C    -0.441237     -0.225532     -0.464153 
 C824  C     0.460575      0.221143     -0.457211 
 C825  C    -0.492230      0.046231      0.312933 
 C826  C    -0.479034     -0.047255     -0.240971 
 C827  C     0.285020     -0.002187      0.487376 
 C828  C    -0.271434      0.008946     -0.417266 
 C829  C     0.464638     -0.226564     -0.463077 
 C830  C    -0.445753      0.218318     -0.464953 
 C831  C     0.490851     -0.046347      0.312799 
 C832  C    -0.492178      0.045908     -0.241573 
 C833  C     0.366813     -0.006512     -0.459789 
 C834  C    -0.356679      0.006458     -0.465216 
 C835  C    -0.487923     -0.141667     -0.463888 
 C836  C    -0.496366      0.135491     -0.459603 
 C837  C     0.498193      0.001022      0.397745 
 C838  C    -0.487318     -0.003031     -0.325527 
 C839  C     0.346697      0.014905      0.360710 
 C840  C    -0.323081     -0.012049     -0.286601 
 C841  C     0.331252     -0.182618     -0.440826 
 C842  C    -0.315633      0.163366     -0.486642 
 C843  C    -0.498336     -0.175178      0.369628 
 C844  C     0.483224      0.173648     -0.298530 
 C845  C     0.284942      0.118113     -0.254925 
 C846  C    -0.288918     -0.103188      0.327583 
 C847  C    -0.277684     -0.168441     -0.398883 
 C848  C     0.300658      0.210862      0.422593 
 C849  C    -0.369751      0.210040      0.305089 
 C850  C     0.420642     -0.222514     -0.268653 
 C851  C     0.299124      0.013934      0.395665 
 C852  C    -0.278867     -0.009963     -0.325666 
 C853  C     0.370865     -0.223251     -0.456445 
 C854  C    -0.354875      0.207471     -0.485447 
 C855  C    -0.495540     -0.137934      0.323975 
 C856  C     0.484518      0.136755     -0.252433 
 H857  H     0.321721      0.114471     -0.301481 
 H858  H    -0.335786     -0.098998      0.364053 
 H859  H    -0.329436     -0.150272     -0.376042 
 H860  H     0.343003      0.169329      0.427705 
 H861  H    -0.375563      0.165614      0.344155 
 H862  H     0.424427     -0.179939     -0.310070 
 C863  C     0.308197      0.100189     -0.203201 
 C864  C    -0.300672     -0.089620      0.270774 
 C865  C    -0.253268     -0.128391     -0.435354 
 C866  C     0.245792      0.192795      0.437187 
 C867  C    -0.388443      0.262876      0.324989 
 C868  C     0.440223     -0.276023     -0.285993 
 C869  C     0.336540      0.032029      0.304606 
 C870  C    -0.307875     -0.034151     -0.233482 
 C871  C     0.277434     -0.205012     -0.429621 
 C872  C    -0.261921      0.178966      0.492687 
 C873  C    -0.476037     -0.229362      0.359054 
 C874  C     0.464672      0.228789     -0.286080 
 O875  O    -0.494621     -0.003132     -0.463456 
 O876  O     0.316456     -0.004744      0.444856 
 O877  O    -0.299367      0.011569     -0.372350 
 O878  O     0.420211     -0.198192     -0.457873 
 O879  O    -0.401685      0.188857     -0.462323 
 O880  O     0.480860     -0.090461      0.340234 
 O881  O    -0.492671      0.089897     -0.271030 
 O882  O     0.388554      0.018674     -0.423613 
 O883  O    -0.451863     -0.118489     -0.439900 
 O884  O    -0.476532      0.037327      0.419100 
 O885  O     0.389500     -0.035533     -0.492155 
 O886  O     0.477254     -0.120283     -0.491032 
 O887  O     0.473856     -0.034405      0.421377 
 O888  O    -0.377044     -0.021575     -0.430452 
 O889  O    -0.463163      0.113088     -0.487927 
 O890  O     0.483593      0.029867     -0.347546 
 O891  O    -0.380366      0.027548      0.497211 
 O892  O     0.467204      0.113384     -0.435015 
 O893  O    -0.462386     -0.038991     -0.347843 
 Zn894  Zn    -0.029430      0.457324      0.472356 
 Zn895  Zn    -0.030683     -0.458194     -0.439335 
 Zn896  Zn     0.057038      0.456154     -0.441069 
 Zn897  Zn     0.056525     -0.455916      0.473834 
 H898  H    -0.190690      0.496904     -0.396238 
 H899  H     0.217078     -0.483499      0.438471 
 H900  H     0.095906      0.295013     -0.479440 
 H901  H    -0.063860     -0.299487     -0.438667 
 H902  H     0.035619     -0.418146      0.314106 
 H903  H     0.029162      0.417118     -0.280918 
 H904  H    -0.118507     -0.456805      0.363114 
 H905  H     0.151270      0.451394     -0.314964 
 H906  H    -0.147294      0.369161     -0.436503 
 H907  H     0.152603     -0.368665      0.465924 
 H908  H     0.047359      0.346536      0.385242 
 H909  H    -0.043523     -0.338348     -0.341897 
 H910  H    -0.128893      0.478302      0.346417 
 H911  H     0.169217     -0.485350     -0.297663 
 H912  H    -0.167059      0.355809      0.499947 
 H913  H     0.142421     -0.357240     -0.467941 
 H914  H    -0.015690      0.326020      0.371003 
 H915  H     0.019825     -0.317667     -0.328619 
 H916  H    -0.245451     -0.412825     -0.272271 
 H917  H     0.255160      0.419288      0.320282 
 H918  H     0.212003      0.240532     -0.383698 
 H919  H    -0.146856     -0.295419      0.482004 
 H920  H     0.111338     -0.287523      0.266978 
 H921  H    -0.068717      0.304932     -0.229100 
 H922  H    -0.223380     -0.350335     -0.257002 
 H923  H     0.236142      0.355189      0.308264 
 H924  H     0.224193      0.261167     -0.320103 
 H925  H    -0.172455     -0.277083      0.421475 
 H926  H     0.174583     -0.272531      0.286683 
 H927  H    -0.132898      0.290924     -0.246423 
 H928  H    -0.213218     -0.446576      0.384701 
 H929  H     0.240617      0.434001     -0.348798 
 H930  H    -0.121496      0.275230     -0.424958 
 H931  H     0.159433     -0.269567      0.452765 
 H932  H     0.062934      0.367224      0.291353 
 H933  H    -0.052906     -0.372157     -0.251577 
 H934  H    -0.224435      0.488134      0.364845 
 H935  H     0.260688      0.496794     -0.327891 
 H936  H    -0.142164      0.262682     -0.489699 
 H937  H     0.140532     -0.263111     -0.481396 
 H938  H    -0.000159      0.343872      0.275861 
 H939  H     0.010122     -0.348235     -0.236020 
 H940  H    -0.134600     -0.470193     -0.240677 
 H941  H     0.151551      0.472245      0.269618 
 H942  H     0.251454      0.349904     -0.437696 
 H943  H    -0.237285     -0.280740     -0.478172 
 H944  H     0.052894     -0.254894      0.373798 
 H945  H    -0.017434      0.254192     -0.333990 
 H946  H    -0.185090     -0.494332      0.272198 
 H947  H     0.232225      0.479966     -0.232536 
 H948  H    -0.235094      0.294874     -0.466174 
 H949  H     0.230594     -0.316198     -0.461342 
 H950  H     0.018381      0.252125      0.319152 
 H951  H    -0.013136     -0.253522     -0.264231 
 H952  H    -0.153199     -0.385658     -0.202492 
 H953  H     0.174190      0.384159      0.240703 
 H954  H     0.284151      0.329038     -0.350843 
 H955  H    -0.210642     -0.368473      0.487404 
 H956  H     0.139765     -0.219223      0.359980 
 H957  H    -0.103619      0.223258     -0.308132 
 H958  H    -0.210446     -0.404790      0.304283 
 H959  H     0.244171      0.390521     -0.275511 
 H960  H    -0.193616      0.278392     -0.377071 
 H961  H     0.247131     -0.284688      0.450809 
 H962  H     0.107679      0.293041      0.297916 
 H963  H    -0.099174     -0.300550     -0.243865 
 C964  C    -0.182680      0.495902     -0.479706 
 C965  C     0.210071     -0.494187     -0.478781 
 C966  C     0.012731      0.304687     -0.482570 
 C967  C     0.008564     -0.303299     -0.481495 
 C968  C     0.017839     -0.499930      0.319873 
 C969  C     0.019029     -0.499810     -0.287403 
 C970  C    -0.210787      0.496011     -0.433425 
 C971  C     0.237578     -0.491180      0.474649 
 C972  C     0.058297      0.275663     -0.479299 
 C973  C    -0.032156     -0.277951     -0.456386 
 C974  C     0.029357     -0.454321      0.293135 
 C975  C     0.022748      0.453393     -0.260268 
 C976  C    -0.208069      0.496413      0.472299 
 C977  C     0.236039      0.495597     -0.432174 
 C978  C    -0.035893      0.280576     -0.480885 
 C979  C     0.048253     -0.273751      0.496053 
 C980  C     0.012088      0.453235      0.293051 
 C981  C     0.009430     -0.453336     -0.260872 
 C982  C    -0.124957      0.494584     -0.477524 
 C983  C     0.152265     -0.495811     -0.481350 
 C984  C     0.016927      0.361998     -0.487255 
 C985  C     0.008699     -0.361372     -0.482649 
 C986  C     0.013863     -0.497709      0.377484 
 C987  C     0.016694      0.498128     -0.345202 
 C988  C    -0.147272     -0.483192      0.345975 
 C989  C     0.184047      0.474811     -0.300938 
 C990  C    -0.164119      0.338707     -0.461084 
 C991  C     0.161822     -0.341536      0.497490 
 C992  C     0.023900      0.327514      0.355184 
 C993  C    -0.018629     -0.322852     -0.310954 
 C994  C    -0.210339     -0.390384     -0.263441 
 C995  C     0.221891      0.395339      0.308754 
 C996  C     0.221004      0.274957     -0.360295 
 C997  C    -0.165323     -0.310595      0.446792 
 C998  C     0.135008     -0.278666      0.301238 
 C999  C    -0.093130      0.292338     -0.261651 
 C1000  C    -0.195263     -0.484969      0.380293 
 C1001  C     0.227366      0.473747     -0.341026 
 C1002  C    -0.127286      0.292693     -0.463393 
 C1003  C     0.138897     -0.288796      0.484715 
 C1004  C     0.023621      0.361194      0.306637 
 C1005  C    -0.014583     -0.362661     -0.267592 
 H1006  H    -0.174110     -0.391222     -0.310497 
 H1007  H     0.179075      0.399942      0.349873 
 H1008  H     0.176033      0.313637     -0.363739 
 H1009  H    -0.127483     -0.347664      0.419964 
 H1010  H     0.135242     -0.325502      0.337863 
 H1011  H    -0.090665      0.333101     -0.304995 
 C1012  C    -0.186200     -0.410437     -0.212949 
 C1013  C     0.205385      0.410215      0.253477 
 C1014  C     0.273747      0.296899     -0.376777 
 C1015  C    -0.217321     -0.335449      0.461315 
 C1016  C     0.115935     -0.227938      0.325779 
 C1017  C    -0.077090      0.237277     -0.277887 
 C1018  C    -0.156840     -0.467637      0.289391 
 C1019  C     0.200152      0.455909     -0.246815 
 C1020  C    -0.218873      0.325650     -0.441710 
 C1021  C     0.220593     -0.341901     -0.493799 
 C1022  C     0.043314      0.271724      0.347454 
 C1023  C    -0.039118     -0.269605     -0.293845 
 O1024  O     0.013481     -0.499933     -0.483471 
 O1025  O    -0.177088      0.497233      0.429435 
 O1026  O     0.206978      0.495225     -0.387847 
 O1027  O    -0.078758      0.311651     -0.482303 
 O1028  O     0.086568     -0.297394      0.468593 
 O1029  O     0.001712      0.409882      0.321548 
 O1030  O     0.007704     -0.408577     -0.289231 
 O1031  O    -0.103233     -0.480736     -0.441033 
 O1032  O     0.053629      0.383655     -0.462850 
 O1033  O     0.041192     -0.463790      0.400143 
 O1034  O    -0.102019      0.468417      0.487920 
 O1035  O    -0.015820      0.384480      0.484035 
 O1036  O    -0.016821      0.470958      0.399427 
 O1037  O     0.129055      0.476793     -0.447890 
 O1038  O     0.043621     -0.383638      0.490999 
 O1039  O    -0.008824     -0.466619     -0.367903 
 O1040  O     0.130726     -0.470427      0.482466 
 O1041  O    -0.026428     -0.384306     -0.456967 
 O1042  O     0.039592      0.460584     -0.367217 
 Zn1043  Zn    -0.441675     -0.460362     -0.436958 
 Zn1044  Zn    -0.444605      0.451944      0.477545 
 Zn1045  Zn     0.469741     -0.459337      0.479782 
 Zn1046  Zn     0.470820      0.454060     -0.433513 
 H1047  H     0.310158      0.479893     -0.396345 
 H1048  H    -0.282082      0.495387      0.433149 
 H1049  H    -0.408294      0.291552     -0.480231 
 H1050  H     0.428895     -0.301865     -0.471730 
 H1051  H     0.492868     -0.423228      0.319883 
 H1052  H    -0.495692      0.411503     -0.275785 
 H1053  H     0.374988     -0.453804      0.356900 
 H1054  H    -0.351756      0.454118     -0.322202 
 H1055  H     0.346390      0.361973     -0.427800 
 H1056  H    -0.322336     -0.341898      0.466506 
 H1057  H    -0.443972      0.334838      0.386807 
 H1058  H     0.497549     -0.349038     -0.344397 
 H1059  H     0.360492      0.481755      0.340860 
 H1060  H    -0.339229     -0.481810     -0.303874 
 H1061  H     0.329021      0.345002     -0.491283 
 H1062  H    -0.302361     -0.350492     -0.469038 
 H1063  H     0.493723      0.314940      0.368478 
 H1064  H    -0.440515     -0.328053     -0.326210 
 H1065  H     0.282567     -0.426337     -0.284128 
 H1066  H    -0.247672      0.404009      0.341485 
 H1067  H    -0.285356      0.254545     -0.389433 
 H1068  H     0.313956     -0.381356      0.467956 
 H1069  H    -0.417621     -0.297218      0.295622 
 H1070  H     0.415770      0.296801     -0.214128 
 H1071  H     0.300568     -0.362162     -0.270799 
 H1072  H    -0.281081      0.350950      0.315008 
 H1073  H    -0.272768      0.276995     -0.326568 
 H1074  H     0.326374     -0.320288      0.495257 
 H1075  H    -0.356317     -0.280484      0.319773 
 H1076  H     0.351921      0.283035     -0.232928 
 H1077  H     0.285075     -0.439899      0.389657 
 H1078  H    -0.255224      0.443744     -0.344505 
 H1079  H     0.377014      0.271990     -0.410218 
 H1080  H    -0.350541     -0.249866      0.489152 
 H1081  H    -0.425540      0.364396      0.296025 
 H1082  H     0.479218     -0.376610     -0.252716 
 H1083  H     0.267501      0.496264      0.369665 
 H1084  H    -0.247326     -0.489205     -0.329744 
 H1085  H     0.355525      0.252034     -0.472859 
 H1086  H    -0.337288     -0.264812     -0.444501 
 H1087  H    -0.487651      0.341681      0.275937 
 H1088  H    -0.458656     -0.353392     -0.233608 
 H1089  H     0.383335     -0.479992     -0.232260 
 H1090  H    -0.237516      0.444207      0.253886 
 H1091  H    -0.243659      0.359793     -0.447668 
 H1092  H     0.232211     -0.381080     -0.481775 
 H1093  H    -0.483448     -0.253653      0.393262 
 H1094  H     0.468763      0.252597     -0.321184 
 H1095  H     0.298603     -0.489619      0.273089 
 H1096  H    -0.279420      0.485922     -0.233452 
 H1097  H     0.260361      0.286018     -0.459006 
 H1098  H    -0.261152     -0.264307      0.460113 
 H1099  H    -0.469772      0.246745      0.311376 
 H1100  H    -0.479288     -0.260461     -0.268655 
 H1101  H     0.361011     -0.391589     -0.201966 
 H1102  H    -0.316602      0.464035      0.305879 
 H1103  H    -0.210519      0.342022     -0.359900 
 H1104  H     0.235250     -0.346144      0.423896 
 H1105  H    -0.395901     -0.216703      0.380375 
 H1106  H     0.382351      0.220080     -0.298474 
 H1107  H     0.275028     -0.402312      0.314739 
 H1108  H    -0.262181      0.395841     -0.272442 
 H1109  H     0.303024      0.266714     -0.370379 
 H1110  H    -0.235359     -0.351568      0.426243 
 H1111  H    -0.381680      0.291655      0.294377 
 H1112  H     0.432580     -0.303673     -0.254542 
 C1113  C     0.317201      0.490765     -0.479015 
 C1114  C    -0.290302      0.495178     -0.483289 
 C1115  C    -0.491474      0.299526     -0.476771 
 C1116  C    -0.487593     -0.306427     -0.474029 
 C1117  C    -0.496650      0.493938      0.325635 
 C1118  C    -0.476683      0.493124     -0.282374 
 C1119  C     0.289645      0.487498     -0.432524 
 C1120  C    -0.262186      0.495511      0.470426 
 C1121  C    -0.445135      0.271587     -0.475174 
 C1122  C     0.465193     -0.280302     -0.469991 
 C1123  C    -0.498779     -0.459009      0.298935 
 C1124  C    -0.487236      0.447457     -0.255206 
 C1125  C     0.291207     -0.499356      0.474315 
 C1126  C    -0.264940      0.494987     -0.435209 
 C1127  C     0.461224      0.274286     -0.468088 
 C1128  C    -0.440695     -0.279218     -0.471788 
 C1129  C    -0.486223      0.447815      0.299004 
 C1130  C    -0.467589     -0.460492     -0.255633 
 C1131  C    -0.347939      0.497763     -0.485545 
 C1132  C     0.374884      0.494472     -0.475933 
 C1133  C    -0.488232     -0.364168     -0.474952 
 C1134  C    -0.488678      0.357394     -0.477803 
 C1135  C    -0.478618      0.492286     -0.340111 
 C1136  C    -0.493580      0.495819      0.383432 
 C1137  C     0.343611     -0.479155      0.343052 
 C1138  C    -0.321715      0.479324     -0.305546 
 C1139  C     0.331342      0.329870     -0.451489 
 C1140  C    -0.307521     -0.321067     -0.499489 
 C1141  C    -0.466235      0.318542      0.354281 
 C1142  C    -0.480569     -0.331920     -0.312078 
 C1143  C     0.315160     -0.402190     -0.271193 
 C1144  C    -0.286561      0.389934      0.331318 
 C1145  C    -0.275520      0.289509     -0.367204 
 C1146  C     0.309349     -0.339504      0.461332 
 C1147  C    -0.397298     -0.284346      0.330767 
 C1148  C     0.391841      0.285748     -0.247582 
 C1149  C     0.299832     -0.479246      0.382685 
 C1150  C    -0.275355      0.481212     -0.342139 
 C1151  C     0.369757      0.285111     -0.450103 
 C1152  C    -0.347521     -0.281426     -0.482328 
 C1153  C    -0.465287      0.356445      0.309045 
 C1154  C    -0.481096     -0.369037     -0.266253 
 H1155  H     0.359540     -0.406027     -0.310625 
 H1156  H    -0.319205      0.385763      0.380553 
 H1157  H    -0.319761      0.329069     -0.372066 
 H1158  H     0.339260     -0.324160      0.412352 
 H1159  H    -0.402001     -0.326302      0.372719 
 H1160  H     0.394313      0.328537     -0.288787 
 C1161  C     0.330081     -0.417490     -0.215636 
 C1162  C    -0.310162      0.425112      0.289776 
 C1163  C    -0.222014      0.309212     -0.384527 
 C1164  C     0.251594     -0.326446      0.457909 
 C1165  C    -0.417808     -0.230718      0.346630 
 C1166  C     0.408412      0.232018     -0.266979 
 C1167  C     0.327349     -0.462217      0.288317 
 C1168  C    -0.309820      0.461250     -0.250039 
 C1169  C     0.276501      0.315719     -0.433187 
 C1170  C    -0.255001     -0.297047      0.486680 
 C1171  C    -0.445584      0.264225      0.341635 
 C1172  C     0.498024     -0.277661     -0.300241 
 O1173  O    -0.486520      0.496284     -0.478485 
 O1174  O     0.320479     -0.499082      0.430105 
 O1175  O    -0.295684      0.494189     -0.392046 
 O1176  O     0.417239      0.303574     -0.471762 
 O1177  O    -0.396210     -0.307379     -0.477740 
 O1178  O    -0.488007      0.403321      0.327636 
 O1179  O    -0.458290     -0.416528     -0.283502 
 O1180  O    -0.370718      0.470862      0.480178 
 O1181  O     0.476762     -0.385850      0.498227 
 O1182  O     0.492822      0.458256     -0.361037 
 O1183  O    -0.369701     -0.472617     -0.453155 
 O1184  O    -0.454398     -0.387208     -0.447997 
 O1185  O    -0.451328     -0.474721     -0.363947 
 O1186  O     0.397501     -0.477710      0.490529 
 O1187  O     0.477538      0.381565     -0.451708 
 O1188  O    -0.466796      0.461305      0.405953 
 O1189  O     0.396838      0.470549     -0.439007 
 O1190  O    -0.452240      0.378063      0.496346 
 O1191  O     0.482782     -0.467205      0.405564 
loop_  
_geom_bond_atom_site_label_1  
_geom_bond_atom_site_label_2  
Zn0   O130 
Zn0   O140 
Zn0   O141 
Zn0   O142 
Zn1   O130 
Zn1   O137 
Zn1   O145 
Zn1   O147 
Zn2   O130 
Zn2   O138 
Zn2   O143 
Zn2   O148 
Zn3   O130 
Zn3   O139 
Zn3   O144 
Zn3   O146 
H4   C76 
H5   C77 
H6   C78 
H7   C79 
H8   C80 
H9   C81 
H10   C94 
H11   C95 
H12   C96 
H13   C97 
H14   C98 
H15   C99 
H16   C94 
H17   C95 
H18   C96 
H19   C97 
H20   C98 
H21   C99 
H22   C100 
H23   C101 
H24   C102 
H25   C103 
H26   C104 
H27   C105 
H28   C100 
H29   C101 
H30   C102 
H31   C103 
H32   C104 
H33   C105 
H34   C106 
H35   C107 
H36   C108 
H37   C109 
H38   C110 
H39   C111 
H40   C106 
H41   C107 
H42   C108 
H43   C109 
H44   C110 
H45   C111 
H46   C720 
H47   C721 
H48   C275 
H49   C276 
H50   C426 
H51   C427 
H52   C124 
H53   C125 
H54   C126 
H55   C127 
H56   C128 
H57   C129 
H58   C118 
H59   C119 
H60   C120 
H61   C121 
H62   C122 
H63   C123 
H64   C714 
H65   C715 
H66   C269 
H67   C270 
H68   C420 
H69   C421 
C70   C76 
C70   C82 
C70   C88 
C71   C77 
C71   C83 
C71   C89 
C72   C78 
C72   C84 
C72   C90 
C73   C79 
C73   C85 
C73   C91 
C74   C80 
C74   C86 
C74   C92 
C75   C81 
C75   C87 
C75   C93 
C76   C232 
C77   C231 
C78   C383 
C79   C382 
C80   C683 
C81   C682 
C82   O131 
C82   C226 
C83   O132 
C83   C225 
C84   O133 
C84   C377 
C85   O134 
C85   C376 
C86   O135 
C86   C677 
C87   O136 
C87   C676 
C88   O137 
C88   O140 
C89   O143 
C89   O146 
C90   O138 
C90   O141 
C91   O144 
C91   O147 
C92   O139 
C92   O142 
C93   O145 
C93   O148 
C94   C106 
C94   C124 
C95   C107 
C95   C125 
C96   C108 
C96   C126 
C97   C109 
C97   C127 
C98   C110 
C98   C128 
C99   C111 
C99   C129 
C100   H112 
C100   C118 
C101   H113 
C101   C119 
C102   H114 
C102   C120 
C103   H115 
C103   C121 
C104   H116 
C104   C122 
C105   H117 
C105   C123 
C106   O131 
C107   O132 
C108   O133 
C109   O134 
C110   O135 
C111   O136 
C118   H660 
C118   C720 
C119   H661 
C119   C721 
C120   H215 
C120   C275 
C121   H216 
C121   C276 
C122   H366 
C122   C426 
C123   H367 
C123   C427 
C124   H642 
C124   C714 
C125   H643 
C125   C715 
C126   H197 
C126   C269 
C127   H198 
C127   C270 
C128   H348 
C128   C420 
C129   H349 
C129   C421 
Zn149   O279 
Zn149   O289 
Zn149   O290 
Zn149   O291 
Zn150   O279 
Zn150   O286 
Zn150   O294 
Zn150   O296 
Zn151   O279 
Zn151   O287 
Zn151   O292 
Zn151   O297 
Zn152   O279 
Zn152   O288 
Zn152   O293 
Zn152   O295 
H153   C225 
H154   C226 
H155   C227 
H156   C228 
H157   C229 
H158   C230 
H159   C243 
H160   C244 
H161   C245 
H162   C246 
H163   C247 
H164   C248 
H165   C243 
H166   C244 
H167   C245 
H168   C246 
H169   C247 
H170   C248 
H171   C249 
H172   C250 
H173   C251 
H174   C252 
H175   C253 
H176   C254 
H177   C249 
H178   C250 
H179   C251 
H180   C252 
H181   C253 
H182   C254 
H183   C255 
H184   C256 
H185   C257 
H186   C258 
H187   C259 
H188   C260 
H189   C255 
H190   C256 
H191   C257 
H192   C258 
H193   C259 
H194   C260 
H195   C869 
H196   C870 
H199   C575 
H200   C576 
H201   C273 
H202   C274 
H203   C275 
H204   C276 
H205   C277 
H206   C278 
H207   C267 
H208   C268 
H209   C269 
H210   C270 
H211   C271 
H212   C272 
H213   C863 
H214   C864 
H217   C569 
H218   C570 
C219   C225 
C219   C231 
C219   C238 
C220   C226 
C220   C232 
C220   C237 
C221   C227 
C221   C233 
C221   C240 
C222   C228 
C222   C234 
C222   C239 
C223   C229 
C223   C235 
C223   C242 
C224   C230 
C224   C236 
C224   C241 
C227   C532 
C228   C531 
C229   C832 
C230   C831 
C231   O280 
C232   O281 
C233   O282 
C233   C526 
C234   O283 
C234   C525 
C235   O284 
C235   C826 
C236   O285 
C236   C825 
C237   O286 
C237   O289 
C238   O292 
C238   O295 
C239   O287 
C239   O290 
C240   O293 
C240   O296 
C241   O288 
C241   O291 
C242   O294 
C242   O297 
C243   C255 
C243   C273 
C244   C256 
C244   C274 
C245   C257 
C245   C275 
C246   C258 
C246   C276 
C247   C259 
C247   C277 
C248   C260 
C248   C278 
C249   H261 
C249   C267 
C250   H262 
C250   C268 
C251   H263 
C251   C269 
C252   H264 
C252   C270 
C253   H265 
C253   C271 
C254   H266 
C254   C272 
C255   O280 
C256   O281 
C257   O282 
C258   O283 
C259   O284 
C260   O285 
C267   H809 
C267   C869 
C268   H810 
C268   C870 
C271   H515 
C271   C575 
C272   H516 
C272   C576 
C273   H791 
C273   C863 
C274   H792 
C274   C864 
C277   H497 
C277   C569 
C278   H498 
C278   C570 
Zn298   O428 
Zn298   O438 
Zn298   O439 
Zn298   O440 
Zn299   O428 
Zn299   O435 
Zn299   O443 
Zn299   O445 
Zn300   O428 
Zn300   O436 
Zn300   O441 
Zn300   O446 
Zn301   O428 
Zn301   O437 
Zn301   O442 
Zn301   O444 
H302   C374 
H303   C375 
H304   C376 
H305   C377 
H306   C378 
H307   C379 
H308   C392 
H309   C393 
H310   C394 
H311   C395 
H312   C396 
H313   C397 
H314   C392 
H315   C393 
H316   C394 
H317   C395 
H318   C396 
H319   C397 
H320   C398 
H321   C399 
H322   C400 
H323   C401 
H324   C402 
H325   C403 
H326   C398 
H327   C399 
H328   C400 
H329   C401 
H330   C402 
H331   C403 
H332   C404 
H333   C405 
H334   C406 
H335   C407 
H336   C408 
H337   C409 
H338   C404 
H339   C405 
H340   C406 
H341   C407 
H342   C408 
H343   C409 
H344   C1018 
H345   C1019 
H346   C573 
H347   C574 
H350   C422 
H351   C423 
H352   C424 
H353   C425 
H354   C426 
H355   C427 
H356   C416 
H357   C417 
H358   C418 
H359   C419 
H360   C420 
H361   C421 
H362   C1012 
H363   C1013 
H364   C567 
H365   C568 
C368   C374 
C368   C380 
C368   C387 
C369   C375 
C369   C381 
C369   C386 
C370   C376 
C370   C382 
C370   C389 
C371   C377 
C371   C383 
C371   C388 
C372   C378 
C372   C384 
C372   C391 
C373   C379 
C373   C385 
C373   C390 
C374   C530 
C375   C529 
C378   C981 
C379   C980 
C380   O429 
C380   C524 
C381   O430 
C381   C523 
C382   O431 
C383   O432 
C384   O433 
C384   C975 
C385   O434 
C385   C974 
C386   O435 
C386   O438 
C387   O441 
C387   O444 
C388   O436 
C388   O439 
C389   O442 
C389   O445 
C390   O437 
C390   O440 
C391   O443 
C391   O446 
C392   C404 
C392   C422 
C393   C405 
C393   C423 
C394   C406 
C394   C424 
C395   C407 
C395   C425 
C396   C408 
C396   C426 
C397   C409 
C397   C427 
C398   H410 
C398   C416 
C399   H411 
C399   C417 
C400   H412 
C400   C418 
C401   H413 
C401   C419 
C402   H414 
C402   C420 
C403   H415 
C403   C421 
C404   O429 
C405   O430 
C406   O431 
C407   O432 
C408   O433 
C409   O434 
C416   H958 
C416   C1018 
C417   H959 
C417   C1019 
C418   H513 
C418   C573 
C419   H514 
C419   C574 
C422   H940 
C422   C1012 
C423   H941 
C423   C1013 
C424   H495 
C424   C567 
C425   H496 
C425   C568 
Zn447   O577 
Zn447   O587 
Zn447   O588 
Zn447   O589 
Zn448   O577 
Zn448   O584 
Zn448   O592 
Zn448   O594 
Zn449   O577 
Zn449   O585 
Zn449   O590 
Zn449   O595 
Zn450   O577 
Zn450   O586 
Zn450   O591 
Zn450   O593 
H451   C523 
H452   C524 
H453   C525 
H454   C526 
H455   C527 
H456   C528 
H457   C541 
H458   C542 
H459   C543 
H460   C544 
H461   C545 
H462   C546 
H463   C541 
H464   C542 
H465   C543 
H466   C544 
H467   C545 
H468   C546 
H469   C547 
H470   C548 
H471   C549 
H472   C550 
H473   C551 
H474   C552 
H475   C547 
H476   C548 
H477   C549 
H478   C550 
H479   C551 
H480   C552 
H481   C553 
H482   C554 
H483   C555 
H484   C556 
H485   C557 
H486   C558 
H487   C553 
H488   C554 
H489   C555 
H490   C556 
H491   C557 
H492   C558 
H493   C1167 
H494   C1168 
H499   C571 
H500   C572 
H501   C573 
H502   C574 
H503   C575 
H504   C576 
H505   C565 
H506   C566 
H507   C567 
H508   C568 
H509   C569 
H510   C570 
H511   C1161 
H512   C1162 
C517   C523 
C517   C529 
C517   C535 
C518   C524 
C518   C530 
C518   C536 
C519   C525 
C519   C531 
C519   C537 
C520   C526 
C520   C532 
C520   C538 
C521   C527 
C521   C533 
C521   C539 
C522   C528 
C522   C534 
C522   C540 
C527   C1130 
C528   C1129 
C529   O578 
C530   O579 
C531   O580 
C532   O581 
C533   O582 
C533   C1124 
C534   O583 
C534   C1123 
C535   O584 
C535   O587 
C536   O590 
C536   O593 
C537   O585 
C537   O588 
C538   O591 
C538   O594 
C539   O586 
C539   O589 
C540   O592 
C540   O595 
C541   C553 
C541   C571 
C542   C554 
C542   C572 
C543   C555 
C543   C573 
C544   C556 
C544   C574 
C545   C557 
C545   C575 
C546   C558 
C546   C576 
C547   H559 
C547   C565 
C548   H560 
C548   C566 
C549   H561 
C549   C567 
C550   H562 
C550   C568 
C551   H563 
C551   C569 
C552   H564 
C552   C570 
C553   O578 
C554   O579 
C555   O580 
C556   O581 
C557   O582 
C558   O583 
C565   H1107 
C565   C1167 
C566   H1108 
C566   C1168 
C571   H1089 
C571   C1161 
C572   H1090 
C572   C1162 
Zn596   O726 
Zn596   O736 
Zn596   O737 
Zn596   O738 
Zn597   O726 
Zn597   O733 
Zn597   O741 
Zn597   O743 
Zn598   O726 
Zn598   O734 
Zn598   O739 
Zn598   O744 
Zn599   O726 
Zn599   O735 
Zn599   O740 
Zn599   O742 
H600   C672 
H601   C673 
H602   C674 
H603   C675 
H604   C676 
H605   C677 
H606   C690 
H607   C691 
H608   C692 
H609   C693 
H610   C694 
H611   C695 
H612   C690 
H613   C691 
H614   C692 
H615   C693 
H616   C694 
H617   C695 
H618   C696 
H619   C697 
H620   C698 
H621   C699 
H622   C700 
H623   C701 
H624   C696 
H625   C697 
H626   C698 
H627   C699 
H628   C700 
H629   C701 
H630   C702 
H631   C703 
H632   C704 
H633   C705 
H634   C706 
H635   C707 
H636   C702 
H637   C703 
H638   C704 
H639   C705 
H640   C706 
H641   C707 
H644   C871 
H645   C872 
H646   C1022 
H647   C1023 
H648   C720 
H649   C721 
H650   C722 
H651   C723 
H652   C724 
H653   C725 
H654   C714 
H655   C715 
H656   C716 
H657   C717 
H658   C718 
H659   C719 
H662   C865 
H663   C866 
H664   C1016 
H665   C1017 
C666   C672 
C666   C678 
C666   C685 
C667   C673 
C667   C679 
C667   C684 
C668   C674 
C668   C680 
C668   C687 
C669   C675 
C669   C681 
C669   C686 
C670   C676 
C670   C682 
C670   C689 
C671   C677 
C671   C683 
C671   C688 
C672   C828 
C673   C827 
C674   C979 
C675   C978 
C678   O727 
C678   C822 
C679   O728 
C679   C821 
C680   O729 
C680   C973 
C681   O730 
C681   C972 
C682   O731 
C683   O732 
C684   O733 
C684   O736 
C685   O739 
C685   O742 
C686   O734 
C686   O737 
C687   O740 
C687   O743 
C688   O735 
C688   O738 
C689   O741 
C689   O744 
C690   C702 
C690   C720 
C691   C703 
C691   C721 
C692   C704 
C692   C722 
C693   C705 
C693   C723 
C694   C706 
C694   C724 
C695   C707 
C695   C725 
C696   H708 
C696   C714 
C697   H709 
C697   C715 
C698   H710 
C698   C716 
C699   H711 
C699   C717 
C700   H712 
C700   C718 
C701   H713 
C701   C719 
C702   O727 
C703   O728 
C704   O729 
C705   O730 
C706   O731 
C707   O732 
C716   H811 
C716   C871 
C717   H812 
C717   C872 
C718   H962 
C718   C1022 
C719   H963 
C719   C1023 
C722   H793 
C722   C865 
C723   H794 
C723   C866 
C724   H944 
C724   C1016 
C725   H945 
C725   C1017 
Zn745   O875 
Zn745   O885 
Zn745   O886 
Zn745   O887 
Zn746   O875 
Zn746   O882 
Zn746   O890 
Zn746   O892 
Zn747   O875 
Zn747   O883 
Zn747   O888 
Zn747   O893 
Zn748   O875 
Zn748   O884 
Zn748   O889 
Zn748   O891 
H749   C821 
H750   C822 
H751   C823 
H752   C824 
H753   C825 
H754   C826 
H755   C839 
H756   C840 
H757   C841 
H758   C842 
H759   C843 
H760   C844 
H761   C839 
H762   C840 
H763   C841 
H764   C842 
H765   C843 
H766   C844 
H767   C845 
H768   C846 
H769   C847 
H770   C848 
H771   C849 
H772   C850 
H773   C845 
H774   C846 
H775   C847 
H776   C848 
H777   C849 
H778   C850 
H779   C851 
H780   C852 
H781   C853 
H782   C854 
H783   C855 
H784   C856 
H785   C851 
H786   C852 
H787   C853 
H788   C854 
H789   C855 
H790   C856 
H795   C1171 
H796   C1172 
H797   C869 
H798   C870 
H799   C871 
H800   C872 
H801   C873 
H802   C874 
H803   C863 
H804   C864 
H805   C865 
H806   C866 
H807   C867 
H808   C868 
H813   C1165 
H814   C1166 
C815   C821 
C815   C827 
C815   C833 
C816   C822 
C816   C828 
C816   C834 
C817   C823 
C817   C829 
C817   C835 
C818   C824 
C818   C830 
C818   C836 
C819   C825 
C819   C831 
C819   C837 
C820   C826 
C820   C832 
C820   C838 
C823   C1128 
C824   C1127 
C827   O876 
C828   O877 
C829   O878 
C829   C1122 
C830   O879 
C830   C1121 
C831   O880 
C832   O881 
C833   O882 
C833   O885 
C834   O888 
C834   O891 
C835   O883 
C835   O886 
C836   O889 
C836   O892 
C837   O884 
C837   O887 
C838   O890 
C838   O893 
C839   C851 
C839   C869 
C840   C852 
C840   C870 
C841   C853 
C841   C871 
C842   C854 
C842   C872 
C843   C855 
C843   C873 
C844   C856 
C844   C874 
C845   H857 
C845   C863 
C846   H858 
C846   C864 
C847   H859 
C847   C865 
C848   H860 
C848   C866 
C849   H861 
C849   C867 
C850   H862 
C850   C868 
C851   O876 
C852   O877 
C853   O878 
C854   O879 
C855   O880 
C856   O881 
C867   H1111 
C867   C1171 
C868   H1112 
C868   C1172 
C873   H1093 
C873   C1165 
C874   H1094 
C874   C1166 
Zn894   O1024 
Zn894   O1034 
Zn894   O1035 
Zn894   O1036 
Zn895   O1024 
Zn895   O1031 
Zn895   O1039 
Zn895   O1041 
Zn896   O1024 
Zn896   O1032 
Zn896   O1037 
Zn896   O1042 
Zn897   O1024 
Zn897   O1033 
Zn897   O1038 
Zn897   O1040 
H898   C970 
H899   C971 
H900   C972 
H901   C973 
H902   C974 
H903   C975 
H904   C988 
H905   C989 
H906   C990 
H907   C991 
H908   C992 
H909   C993 
H910   C988 
H911   C989 
H912   C990 
H913   C991 
H914   C992 
H915   C993 
H916   C994 
H917   C995 
H918   C996 
H919   C997 
H920   C998 
H921   C999 
H922   C994 
H923   C995 
H924   C996 
H925   C997 
H926   C998 
H927   C999 
H928   C1000 
H929   C1001 
H930   C1002 
H931   C1003 
H932   C1004 
H933   C1005 
H934   C1000 
H935   C1001 
H936   C1002 
H937   C1003 
H938   C1004 
H939   C1005 
H942   C1169 
H943   C1170 
H946   C1018 
H947   C1019 
H948   C1020 
H949   C1021 
H950   C1022 
H951   C1023 
H952   C1012 
H953   C1013 
H954   C1014 
H955   C1015 
H956   C1016 
H957   C1017 
H960   C1163 
H961   C1164 
C964   C970 
C964   C976 
C964   C982 
C965   C971 
C965   C977 
C965   C983 
C966   C972 
C966   C978 
C966   C984 
C967   C973 
C967   C979 
C967   C985 
C968   C974 
C968   C980 
C968   C986 
C969   C975 
C969   C981 
C969   C987 
C970   C1126 
C971   C1125 
C976   O1025 
C976   C1120 
C977   O1026 
C977   C1119 
C978   O1027 
C979   O1028 
C980   O1029 
C981   O1030 
C982   O1031 
C982   O1034 
C983   O1037 
C983   O1040 
C984   O1032 
C984   O1035 
C985   O1038 
C985   O1041 
C986   O1033 
C986   O1036 
C987   O1039 
C987   O1042 
C988   C1000 
C988   C1018 
C989   C1001 
C989   C1019 
C990   C1002 
C990   C1020 
C991   C1003 
C991   C1021 
C992   C1004 
C992   C1022 
C993   C1005 
C993   C1023 
C994   H1006 
C994   C1012 
C995   H1007 
C995   C1013 
C996   H1008 
C996   C1014 
C997   H1009 
C997   C1015 
C998   H1010 
C998   C1016 
C999   H1011 
C999   C1017 
C1000   O1025 
C1001   O1026 
C1002   O1027 
C1003   O1028 
C1004   O1029 
C1005   O1030 
C1014   H1109 
C1014   C1169 
C1015   H1110 
C1015   C1170 
C1020   H1091 
C1020   C1163 
C1021   H1092 
C1021   C1164 
Zn1043   O1173 
Zn1043   O1183 
Zn1043   O1184 
Zn1043   O1185 
Zn1044   O1173 
Zn1044   O1180 
Zn1044   O1188 
Zn1044   O1190 
Zn1045   O1173 
Zn1045   O1181 
Zn1045   O1186 
Zn1045   O1191 
Zn1046   O1173 
Zn1046   O1182 
Zn1046   O1187 
Zn1046   O1189 
H1047   C1119 
H1048   C1120 
H1049   C1121 
H1050   C1122 
H1051   C1123 
H1052   C1124 
H1053   C1137 
H1054   C1138 
H1055   C1139 
H1056   C1140 
H1057   C1141 
H1058   C1142 
H1059   C1137 
H1060   C1138 
H1061   C1139 
H1062   C1140 
H1063   C1141 
H1064   C1142 
H1065   C1143 
H1066   C1144 
H1067   C1145 
H1068   C1146 
H1069   C1147 
H1070   C1148 
H1071   C1143 
H1072   C1144 
H1073   C1145 
H1074   C1146 
H1075   C1147 
H1076   C1148 
H1077   C1149 
H1078   C1150 
H1079   C1151 
H1080   C1152 
H1081   C1153 
H1082   C1154 
H1083   C1149 
H1084   C1150 
H1085   C1151 
H1086   C1152 
H1087   C1153 
H1088   C1154 
H1095   C1167 
H1096   C1168 
H1097   C1169 
H1098   C1170 
H1099   C1171 
H1100   C1172 
H1101   C1161 
H1102   C1162 
H1103   C1163 
H1104   C1164 
H1105   C1165 
H1106   C1166 
C1113   C1119 
C1113   C1125 
C1113   C1132 
C1114   C1120 
C1114   C1126 
C1114   C1131 
C1115   C1121 
C1115   C1127 
C1115   C1134 
C1116   C1122 
C1116   C1128 
C1116   C1133 
C1117   C1123 
C1117   C1129 
C1117   C1136 
C1118   C1124 
C1118   C1130 
C1118   C1135 
C1125   O1174 
C1126   O1175 
C1127   O1176 
C1128   O1177 
C1129   O1178 
C1130   O1179 
C1131   O1180 
C1131   O1183 
C1132   O1186 
C1132   O1189 
C1133   O1181 
C1133   O1184 
C1134   O1187 
C1134   O1190 
C1135   O1182 
C1135   O1185 
C1136   O1188 
C1136   O1191 
C1137   C1149 
C1137   C1167 
C1138   C1150 
C1138   C1168 
C1139   C1151 
C1139   C1169 
C1140   C1152 
C1140   C1170 
C1141   C1153 
C1141   C1171 
C1142   C1154 
C1142   C1172 
C1143   H1155 
C1143   C1161 
C1144   H1156 
C1144   C1162 
C1145   H1157 
C1145   C1163 
C1146   H1158 
C1146   C1164 
C1147   H1159 
C1147   C1165 
C1148   H1160 
C1148   C1166 
C1149   O1174 
C1150   O1175 
C1151   O1176 
C1152   O1177 
C1153   O1178 
C1154   O1179 
  
#END  
