data_
_symmetry_cell_setting           triclinic 
_symmetry_space_group_name_H-M   'P 1' 
_symmetry_Int_Tables_number      1 
loop_ 
_symmetry_equiv_pos_site_id 
_symmetry_equiv_pos_as_xyz 
1 x,y,z 
_cell_length_a             18.283187        
_cell_length_b             10.745882        
_cell_length_c             19.087479        
_cell_angle_alpha          89.800700        
_cell_angle_beta           90.130621        
_cell_angle_gamma          89.662693        
loop_  
_atom_site_label   
_atom_site_type_symbol  
_atom_site_fract_x  
_atom_site_fract_y  
_atom_site_fract_z 
 Cu0  Cu    -0.016403      0.009591      0.071181 
 Cu1  Cu    -0.017107     -0.015709     -0.065248 
 O2  O    -0.079674      0.126803     -0.052779 
 C3  C    -0.108651      0.176149      0.001009 
 O4  O    -0.078468      0.167350      0.062866 
 O5  O     0.065721      0.110207     -0.056310 
 C6  C     0.095308      0.141193      0.001320 
 O7  O     0.072268      0.114945      0.063023 
 O8  O    -0.098296     -0.135544     -0.050657 
 C9  C    -0.128446     -0.129833      0.007631 
 O10  O    -0.101234     -0.088923      0.065381 
 O11  O     0.052777     -0.155525     -0.052481 
 C12  C     0.081996     -0.169461      0.006241 
 O13  O     0.051450     -0.143126      0.063164 
 Cu14  Cu     0.482561     -0.494432      0.057561 
 Cu15  Cu     0.490789     -0.498036     -0.077974 
 O16  O     0.411500     -0.380195     -0.055980 
 C17  C     0.377557     -0.347495     -0.000012 
 O18  O     0.401300     -0.376653      0.060468 
 O19  O    -0.434023     -0.373478     -0.062534 
 C20  C    -0.414211     -0.338449     -0.003751 
 O21  O    -0.448197     -0.351260      0.054293 
 O22  O     0.414039      0.376730     -0.073002 
 C23  C     0.383185      0.348436     -0.014005 
 O24  O     0.410864      0.368520      0.043847 
 O25  O    -0.432105      0.371789     -0.075113 
 C26  C    -0.409358      0.352460     -0.013701 
 O27  O    -0.433072      0.384122      0.044649 
 C28  C    -0.237195      0.158440     -0.043270 
 C29  C    -0.187229      0.232507     -0.007828 
 C30  C    -0.210583      0.340294      0.029443 
 C31  C    -0.284996      0.364878      0.030836 
 C32  C    -0.335715      0.292709     -0.005811 
 C33  C    -0.311558      0.182453     -0.038068 
 O34  O    -0.160287      0.416187      0.058680 
 C35  C    -0.184754      0.489811      0.121417 
 C36  C    -0.115323     -0.439133      0.142255 
 C37  C    -0.048432      0.469321      0.156516 
 C38  C     0.020775     -0.473505      0.186216 
 O39  O    -0.365963      0.099753     -0.061707 
 C40  C    -0.349247     -0.003242     -0.105144 
 C41  C    -0.416251     -0.081574     -0.114317 
 C42  C    -0.489663     -0.014112     -0.122826 
 C43  C    -0.487750      0.063887     -0.190690 
 H44  H    -0.303770      0.444582      0.058109 
 H45  H    -0.220445      0.074278     -0.072944 
 H46  H    -0.333146      0.030658     -0.155219 
 H47  H    -0.303662     -0.064825     -0.083611 
 H48  H    -0.233445     -0.457337      0.107768 
 H49  H    -0.195073      0.416677      0.160595 
 H50  H    -0.409063     -0.145582     -0.163021 
 H51  H    -0.423581     -0.131124     -0.065164 
 H52  H    -0.098744     -0.379340      0.096624 
 H53  H    -0.125697     -0.391194      0.192996 
 H54  H    -0.070037      0.389808      0.188939 
 H55  H    -0.035970      0.420782      0.104772 
 H56  H     0.463369     -0.072676     -0.126561 
 H57  H    -0.498136      0.045115     -0.073846 
 H58  H    -0.487441      0.010340     -0.238643 
 H59  H     0.462684      0.119715     -0.189314 
 H60  H    -0.441340      0.131624     -0.190981 
 H61  H     0.059569      0.451699      0.191086 
 H62  H     0.032444     -0.391044      0.153046 
 H63  H     0.015560     -0.439813      0.239659 
 N64  N    -0.020688     -0.026438      0.322508 
 C65  C    -0.097025     -0.029431      0.302488 
 C66  C     0.012581      0.086740      0.291793 
 C67  C     0.019121     -0.137264      0.295854 
 C68  C    -0.007315      0.089107      0.210964 
 H69  H    -0.009767      0.172935      0.318234 
 H70  H     0.071251      0.083203      0.303657 
 C71  C    -0.104976     -0.061345      0.222085 
 H72  H    -0.125380     -0.096599      0.335198 
 H73  H    -0.123168      0.070560      0.310415 
 C74  C     0.017037     -0.132337      0.214034 
 H75  H     0.073808     -0.139512      0.314911 
 H76  H    -0.011497     -0.224732      0.313281 
 H77  H    -0.120300     -0.159440      0.209085 
 H78  H    -0.147099     -0.004404      0.198523 
 H79  H    -0.052253      0.162845      0.205215 
 H80  H     0.045059      0.124804      0.182620 
 H81  H     0.006723     -0.225770      0.193194 
 N82  N    -0.035445     -0.034587      0.183953 
 H83  H     0.072969     -0.104792      0.193142 
 C84  C     0.270758      0.310288      0.052175 
 C85  C     0.304888      0.306274     -0.013025 
 C86  C     0.271302      0.257680     -0.072321 
 C87  C     0.199187      0.220172     -0.066050 
 C88  C     0.167486      0.204489     -0.000055 
 C89  C     0.206168      0.246403      0.058841 
 O90  O     0.307942      0.263340     -0.134462 
 C91  C     0.280846      0.191427     -0.190274 
 C92  C     0.228426      0.268549     -0.237572 
 C93  C     0.207996      0.198116     -0.305209 
 C94  C     0.267219      0.214594     -0.359030 
 O95  O     0.185328      0.213240      0.125517 
 C96  C     0.240341      0.241317      0.177466 
 C97  C     0.218079      0.189953      0.250794 
 C98  C     0.189394      0.058719      0.252748 
 C99  C     0.251573     -0.026482      0.228328 
 H100  H     0.171063      0.176134     -0.112966 
 H101  H     0.298370      0.347544      0.096961 
 H102  H     0.295149      0.211245      0.165045 
 H103  H     0.241061      0.341480      0.179165 
 H104  H     0.330821      0.174940     -0.219854 
 H105  H     0.250424      0.108619     -0.174043 
 H106  H     0.263354      0.206683      0.290653 
 H107  H     0.170681      0.251221      0.264904 
 H108  H     0.172487      0.286869     -0.209994 
 H109  H     0.251811      0.356052     -0.254217 
 H110  H     0.202167      0.104092     -0.290398 
 H111  H     0.151148      0.234646     -0.320334 
 H112  H     0.170870      0.034801      0.304909 
 H113  H     0.143002      0.045186      0.217284 
 H114  H     0.233341     -0.122388      0.215321 
 H115  H     0.270405      0.001982      0.177002 
 H116  H     0.299263     -0.028551      0.262111 
 H117  H     0.257231      0.168027     -0.411211 
 H118  H     0.275039      0.309873     -0.374616 
 H119  H     0.318190      0.182029     -0.335328 
 C120  C     0.247260     -0.369125     -0.033531 
 C121  C     0.302633     -0.294493     -0.001184 
 C122  C     0.287790     -0.183950      0.036008 
 C123  C     0.214001     -0.151916      0.042273 
 C124  C     0.162166     -0.217405      0.004820 
 C125  C     0.174580     -0.323159     -0.035925 
 O126  O     0.336438     -0.111033      0.073085 
 C127  C     0.392411     -0.042111      0.031826 
 C128  C     0.426055      0.072581      0.070093 
 C129  C     0.462635      0.035837      0.141259 
 C130  C    -0.485472     -0.078331      0.125381 
 O131  O     0.121920     -0.376990     -0.074600 
 C132  C     0.128816      0.496505     -0.083952 
 C133  C     0.056931      0.451844     -0.117251 
 C134  C    -0.011943      0.454433     -0.069675 
 C135  C    -0.032427     -0.413341     -0.043124 
 H136  H     0.194438     -0.077059      0.073176 
 H137  H     0.270276     -0.457260     -0.054010 
 H138  H     0.180366      0.481658     -0.116298 
 H139  H     0.134625      0.451168     -0.032546 
 H140  H     0.431058     -0.114580      0.011503 
 H141  H     0.361844     -0.007878     -0.017050 
 H142  H     0.050621     -0.496737     -0.167924 
 H143  H     0.067808      0.351353     -0.131633 
 H144  H     0.466666      0.109354      0.037727 
 H145  H     0.385021      0.146945      0.080603 
 H146  H     0.496640      0.117298      0.156879 
 H147  H     0.426119      0.003924      0.183551 
 H148  H    -0.061704      0.412841     -0.098894 
 H149  H    -0.005281      0.392905     -0.025043 
 H150  H    -0.045808     -0.340866     -0.082474 
 H151  H    -0.081894     -0.431253     -0.013612 
 H152  H     0.006193     -0.367743     -0.005067 
 H153  H    -0.454657     -0.054083      0.079047 
 H154  H    -0.444251     -0.098391      0.172309 
 H155  H     0.488560     -0.168573      0.108152 
 N156  N     0.483717     -0.481769      0.312325 
 C157  C     0.462982     -0.361988      0.285644 
 C158  C    -0.441862      0.489275      0.282696 
 C159  C     0.429806      0.429769      0.285782 
 C160  C    -0.452785      0.457131      0.203544 
 H161  H    -0.407011     -0.429292      0.290181 
 H162  H    -0.419879      0.408353      0.312486 
 C163  C     0.483070     -0.354576      0.207005 
 H164  H     0.403835     -0.347187      0.301872 
 H165  H     0.496712     -0.292580      0.314391 
 C166  C     0.420479      0.442708      0.205486 
 H167  H     0.447651      0.340687      0.304292 
 H168  H     0.377024      0.446844      0.309217 
 H169  H     0.440946     -0.293169      0.177403 
 H170  H    -0.463003     -0.316716      0.201789 
 H171  H    -0.404825      0.486784      0.172277 
 H172  H    -0.456994      0.353505      0.203113 
 H173  H     0.367025      0.478567      0.190565 
 N174  N     0.480486     -0.481199      0.179357 
 H175  H     0.420499      0.359209      0.175967 
 C176  C    -0.214155     -0.279570     -0.041222 
 C177  C    -0.200889     -0.184776      0.008622 
 C178  C    -0.253857     -0.143382      0.054519 
 C179  C    -0.323221     -0.202484      0.053628 
 C180  C    -0.338924     -0.284267     -0.001011 
 C181  C    -0.283796     -0.326192     -0.048211 
 O182  O    -0.235047     -0.043853      0.097992 
 C183  C    -0.295819      0.020951      0.139146 
 C184  C    -0.276568      0.135138      0.183646 
 C185  C    -0.340275      0.215367      0.211384 
 C186  C    -0.381552      0.152949      0.268393 
 O187  O    -0.299252     -0.415761     -0.097668 
 C188  C    -0.246138     -0.483910     -0.132487 
 C189  C    -0.292914      0.433248     -0.182179 
 C190  C    -0.248606      0.354727     -0.232197 
 C191  C    -0.198437      0.252037     -0.203151 
 H192  H    -0.367449     -0.176280      0.090867 
 H193  H    -0.174710     -0.302636     -0.082176 
 H194  H    -0.201487     -0.427739     -0.162135 
 H195  H    -0.219670      0.452982     -0.092701 
 H196  H    -0.339641      0.049276      0.102013 
 H197  H    -0.316156     -0.045229      0.175892 
 H198  H    -0.314423      0.362943     -0.145170 
 H199  H    -0.338364      0.476108     -0.208663 
 H200  H    -0.246805      0.100317      0.230005 
 H201  H    -0.244075      0.203692      0.151945 
 H202  H    -0.318409      0.313834      0.230190 
 H203  H    -0.379198      0.233183      0.167454 
 H204  H    -0.286775      0.306986     -0.268137 
 H205  H    -0.217875      0.413836     -0.268828 
 H206  H    -0.235431      0.193276     -0.173121 
 H207  H    -0.173238      0.189298     -0.243372 
 H208  H    -0.161491      0.286474     -0.164985 
 H209  H    -0.411435      0.062745      0.253108 
 H210  H    -0.344483      0.137478      0.311001 
 H211  H    -0.424257      0.214951      0.287709 
 Cu212  Cu     0.011061      0.016753     -0.427091 
 Cu213  Cu     0.001682      0.001153      0.433871 
 O214  O    -0.091724      0.097557      0.453977 
 C215  C    -0.121851      0.114960     -0.486667 
 O216  O    -0.087812      0.105360     -0.428694 
 O217  O     0.048658      0.157682      0.428979 
 C218  C     0.081753      0.197182      0.483098 
 O219  O     0.063508      0.176418     -0.452815 
 O220  O    -0.048176     -0.160455      0.454742 
 C221  C    -0.080524     -0.170220     -0.486321 
 O222  O    -0.054709     -0.135632     -0.427578 
 O223  O     0.097092     -0.088496      0.441820 
 C224  C     0.126308     -0.114022      0.499971 
 O225  O     0.100104     -0.094639     -0.438805 
 Cu226  Cu     0.496864      0.488738     -0.441566 
 Cu227  Cu    -0.489982     -0.487787      0.426056 
 O228  O     0.446328     -0.339570      0.437807 
 C229  C     0.423790     -0.313690      0.498956 
 O230  O     0.452880     -0.347838     -0.445632 
 O231  O    -0.395925     -0.392233      0.435711 
 C232  C    -0.373417     -0.388106      0.499500 
 O233  O    -0.404394     -0.426341     -0.444820 
 O234  O     0.412164      0.412681      0.426332 
 C235  C     0.375099      0.390558      0.483991 
 O236  O     0.396537      0.404888     -0.453213 
 O237  O    -0.432570      0.355255      0.434445 
 C238  C    -0.410896      0.325999      0.494709 
 O239  O    -0.445465      0.336445     -0.449393 
 C240  C    -0.314501      0.225826     -0.434761 
 C241  C    -0.332843      0.280416     -0.499191 
 C242  C    -0.284158      0.291459      0.446044 
 C243  C    -0.219650      0.224421      0.447542 
 C244  C    -0.197375      0.172206     -0.488897 
 C245  C    -0.245796      0.170675     -0.429050 
 O246  O    -0.303801      0.361785      0.389027 
 C247  C    -0.247675      0.397500      0.341010 
 C248  C    -0.203443      0.492818      0.378494 
 C249  C    -0.127631     -0.483311      0.348797 
 C250  C    -0.077820      0.398317      0.351453 
 O251  O    -0.220550      0.108933     -0.369639 
 C252  C    -0.272066      0.065450     -0.320014 
 C253  C    -0.317216     -0.046918     -0.342956 
 C254  C    -0.280627     -0.170031     -0.323456 
 C255  C    -0.275668     -0.201036     -0.242942 
 H256  H    -0.185603      0.219284      0.400777 
 H257  H    -0.352424      0.247244     -0.391224 
 H258  H    -0.237246      0.037072     -0.273481 
 H259  H    -0.311565      0.138624     -0.309316 
 H260  H    -0.217783      0.315811      0.323948 
 H261  H    -0.272568      0.442686      0.296041 
 H262  H    -0.364729     -0.040764     -0.310720 
 H263  H    -0.336204     -0.057895     -0.397940 
 H264  H    -0.228201     -0.416241      0.376356 
 H265  H    -0.196183      0.449618      0.431786 
 H266  H    -0.133958     -0.460287      0.293124 
 H267  H    -0.096991     -0.408356      0.374881 
 H268  H    -0.310800     -0.244442     -0.352722 
 H269  H    -0.221404     -0.178865     -0.341159 
 H270  H    -0.240837     -0.127158     -0.213147 
 H271  H    -0.331783     -0.210564     -0.219125 
 H272  H    -0.239908     -0.285288     -0.239081 
 H273  H    -0.029949      0.425432      0.320236 
 H274  H    -0.061901      0.367431      0.401674 
 H275  H    -0.102084      0.319775      0.323878 
 N276  N    -0.008315     -0.015166     -0.178213 
 C277  C    -0.072051     -0.070705     -0.205184 
 C278  C    -0.000303      0.119906     -0.197305 
 C279  C     0.058883     -0.079665     -0.204231 
 C280  C    -0.011682      0.128297     -0.277761 
 H281  H    -0.040802      0.185864     -0.167850 
 H282  H     0.057093      0.147129     -0.178915 
 C283  C    -0.067506     -0.068747     -0.289701 
 H284  H    -0.085375     -0.161270     -0.180833 
 H285  H    -0.117866     -0.011520     -0.185365 
 C286  C     0.064709     -0.067653     -0.285201 
 H287  H     0.110346     -0.041642     -0.179340 
 H288  H     0.054747     -0.182761     -0.186879 
 H289  H    -0.071073     -0.160712     -0.316394 
 H290  H    -0.113669     -0.015638     -0.307734 
 H291  H    -0.061853      0.173303     -0.291194 
 H292  H     0.029695      0.191520     -0.298738 
 H293  H     0.063389     -0.164821     -0.308095 
 N294  N    -0.000837      0.000253     -0.311579 
 H295  H     0.117309     -0.032625     -0.303171 
 C296  C     0.243749      0.422117     -0.486836 
 C297  C     0.298550      0.352871      0.475028 
 C298  C     0.285380      0.245858      0.435498 
 C299  C     0.212539      0.192368      0.434336 
 C300  C     0.156662      0.254084      0.473184 
 C301  C     0.172032      0.367146     -0.489911 
 O302  O     0.350869      0.191857      0.413276 
 C303  C     0.351237      0.064601      0.403201 
 C304  C     0.429024      0.017188      0.413164 
 C305  C     0.453382      0.034944      0.492049 
 C306  C    -0.474078     -0.031006     -0.488251 
 O307  O     0.111271      0.412975     -0.458777 
 C308  C     0.110576     -0.447790     -0.447329 
 C309  C     0.113631     -0.412698     -0.369298 
 C310  C     0.188330     -0.427155     -0.333473 
 C311  C     0.188877     -0.416449     -0.253541 
 H312  H     0.206908      0.096126      0.415512 
 H313  H     0.257028     -0.492464     -0.458908 
 H314  H     0.152963     -0.398878     -0.475997 
 H315  H     0.056993     -0.413754     -0.471859 
 H316  H     0.316871      0.013614      0.440659 
 H317  H     0.330002      0.037598      0.351479 
 H318  H     0.097259     -0.316815     -0.365311 
 H319  H     0.070583     -0.475093     -0.344387 
 H320  H     0.430761     -0.085233      0.403519 
 H321  H     0.470131      0.060478      0.379339 
 H322  H     0.459373      0.134263     -0.493188 
 H323  H     0.413162     -0.008688     -0.477287 
 H324  H     0.220959      0.490339     -0.355588 
 H325  H     0.221951     -0.342599     -0.348358 
 H326  H     0.161377     -0.325505     -0.249926 
 H327  H     0.159292     -0.492069     -0.228184 
 H328  H     0.241293     -0.408753     -0.232223 
 H329  H    -0.465872     -0.045012     -0.430831 
 H330  H    -0.473650     -0.124747      0.491084 
 H331  H    -0.423715      0.028178      0.498964 
 C332  C     0.246759     -0.148737     -0.443924 
 C333  C     0.203211     -0.171846      0.498545 
 C334  C     0.230098     -0.231452      0.437666 
 C335  C     0.308169     -0.261773      0.435437 
 C336  C     0.348465     -0.255659      0.497557 
 C337  C     0.319022     -0.198557     -0.442598 
 O338  O     0.190061     -0.237993      0.378220 
 C339  C     0.158650     -0.359469      0.372823 
 C340  C     0.147550     -0.395743      0.293440 
 C341  C     0.223566     -0.393014      0.255516 
 C342  C     0.216864     -0.411318      0.176989 
 O343  O     0.364491     -0.194889     -0.381563 
 C344  C     0.379266     -0.076156     -0.348405 
 C345  C     0.369749     -0.094842     -0.271107 
 C346  C     0.294840     -0.130414     -0.242565 
 C347  C     0.285496     -0.151806     -0.164618 
 H348  H     0.325407     -0.299279      0.385747 
 H349  H     0.226420     -0.106017     -0.397998 
 H350  H     0.435315     -0.042361     -0.357751 
 H351  H     0.339830     -0.005280     -0.369298 
 H352  H     0.190868     -0.436462      0.394803 
 H353  H     0.103155     -0.347039      0.398532 
 H354  H     0.408765     -0.172492     -0.251550 
 H355  H     0.384523     -0.002461     -0.247526 
 H356  H     0.124677     -0.487490      0.280301 
 H357  H     0.109545     -0.324300      0.267086 
 H358  H     0.254263     -0.313155      0.267163 
 H359  H     0.258284     -0.467522      0.280971 
 H360  H     0.248462     -0.069964     -0.261661 
 H361  H     0.281911     -0.214726     -0.274036 
 H362  H     0.281259     -0.071417     -0.129427 
 H363  H     0.233184     -0.199978     -0.157456 
 H364  H     0.333948     -0.212799     -0.149692 
 H365  H     0.273217     -0.416649      0.148559 
 H366  H     0.187994     -0.497894      0.165008 
 H367  H     0.186963     -0.336861      0.149988 
 N368  N     0.473195      0.498938     -0.192170 
 C369  C     0.398288     -0.490822     -0.219785 
 C370  C    -0.488861     -0.390910     -0.221949 
 C371  C    -0.494372      0.379195     -0.213373 
 C372  C    -0.489538     -0.399499     -0.304030 
 H373  H     0.472665     -0.310716     -0.207846 
 H374  H    -0.433014     -0.369338     -0.195686 
 C375  C     0.401857      0.487844     -0.300902 
 H376  H     0.365829      0.437638     -0.193915 
 H377  H     0.368050     -0.408306     -0.203062 
 C378  C    -0.492684      0.368883     -0.295674 
 H379  H    -0.440079      0.365013     -0.192699 
 H380  H     0.473905      0.298458     -0.197278 
 H381  H     0.371641      0.396474     -0.310594 
 H382  H     0.374372     -0.443441     -0.334678 
 H383  H     0.478645     -0.323222     -0.326285 
 H384  H    -0.434125     -0.403976     -0.324326 
 H385  H     0.484164      0.277943     -0.314754 
 N386  N     0.476399      0.481365     -0.328240 
 H387  H    -0.435447      0.365829     -0.309023 
 C388  C    -0.241406     -0.394815     -0.462287 
 C389  C    -0.299551     -0.324183     -0.492198 
 C390  C    -0.285202     -0.206640      0.475117 
 C391  C    -0.213931     -0.158199      0.480481 
 C392  C    -0.156963     -0.228611     -0.485338 
 C393  C    -0.171199     -0.343902     -0.459432 
 O394  O    -0.343121     -0.154963      0.443516 
 C395  C    -0.338863     -0.047975      0.398000 
 C396  C    -0.295592     -0.097543      0.338126 
 C397  C    -0.328776     -0.203394      0.294500 
 C398  C    -0.271018     -0.261033      0.242874 
 O399  O    -0.117765     -0.407607     -0.426724 
 C400  C    -0.126384      0.449518     -0.420495 
 C401  C    -0.060477      0.404038     -0.378734 
 C402  C    -0.057822      0.441555     -0.301332 
 C403  C    -0.081182     -0.424579     -0.281554 
 H404  H    -0.205830     -0.066214      0.462457 
 H405  H    -0.249206     -0.490528     -0.442892 
 H406  H    -0.175854      0.419841     -0.394011 
 H407  H    -0.132463      0.412232     -0.473231 
 H408  H    -0.393065     -0.002780      0.383707 
 H409  H    -0.303211      0.015565      0.426817 
 H410  H    -0.054819      0.306255     -0.384219 
 H411  H    -0.011543      0.445109     -0.402289 
 H412  H    -0.286415     -0.018889      0.302752 
 H413  H    -0.241687     -0.136900      0.353483 
 H414  H    -0.350680     -0.281079      0.333861 
 H415  H    -0.378940     -0.187373      0.263413 
 H416  H    -0.092598      0.385934     -0.267487 
 H417  H    -0.000674      0.420342     -0.284299 
 H418  H    -0.130856     -0.377958     -0.302332 
 H419  H    -0.087694     -0.418591     -0.225784 
 H420  H    -0.035770     -0.368005     -0.299152 
 H421  H    -0.293849     -0.344717      0.214743 
 H422  H    -0.254132     -0.194941      0.201761 
 H423  H    -0.221194     -0.290015      0.270694 
loop_  
_geom_bond_atom_site_label_1  
_geom_bond_atom_site_label_2  
Cu0   Cu1 
Cu0   O4 
Cu0   O7 
Cu0   O10 
Cu0   O13 
Cu0   N82 
Cu1   O2 
Cu1   O5 
Cu1   O8 
Cu1   O11 
Cu1   N276 
O2   C3 
C3   O4 
C3   C29 
O5   C6 
C6   O7 
C6   C88 
O8   C9 
C9   O10 
C9   C177 
O11   C12 
C12   O13 
C12   C124 
Cu14   Cu15 
Cu14   O18 
Cu14   O21 
Cu14   O24 
Cu14   O27 
Cu14   N174 
Cu15   O16 
Cu15   O19 
Cu15   O22 
Cu15   O25 
Cu15   N368 
O16   C17 
C17   O18 
C17   C121 
O19   C20 
C20   O21 
C20   C180 
O22   C23 
C23   O24 
C23   C85 
O25   C26 
C26   O27 
C26   C32 
C28   C29 
C28   C33 
C28   H45 
C29   C30 
C30   C31 
C30   O34 
C31   C32 
C31   H44 
C32   C33 
C33   O39 
O34   C35 
C35   C36 
C35   H48 
C35   H49 
C36   C37 
C36   H52 
C36   H53 
C37   C38 
C37   H54 
C37   H55 
C38   H61 
C38   H62 
C38   H63 
O39   C40 
C40   C41 
C40   H46 
C40   H47 
C41   C42 
C41   H50 
C41   H51 
C42   C43 
C42   H56 
C42   H57 
C43   H58 
C43   H59 
C43   H60 
N64   C65 
N64   C66 
N64   C67 
N64   Cu213 
C65   C71 
C65   H72 
C65   H73 
C66   C68 
C66   H69 
C66   H70 
C67   C74 
C67   H75 
C67   H76 
C68   H79 
C68   H80 
C68   N82 
C71   H77 
C71   H78 
C71   N82 
C74   H81 
C74   N82 
C74   H83 
C84   C85 
C84   C89 
C84   H101 
C85   C86 
C86   C87 
C86   O90 
C87   C88 
C87   H100 
C88   C89 
C89   O95 
O90   C91 
C91   C92 
C91   H104 
C91   H105 
C92   C93 
C92   H108 
C92   H109 
C93   C94 
C93   H110 
C93   H111 
C94   H117 
C94   H118 
C94   H119 
O95   C96 
C96   C97 
C96   H102 
C96   H103 
C97   C98 
C97   H106 
C97   H107 
C98   C99 
C98   H112 
C98   H113 
C99   H114 
C99   H115 
C99   H116 
C120   C121 
C120   C125 
C120   H137 
C121   C122 
C122   C123 
C122   O126 
C123   C124 
C123   H136 
C124   C125 
C125   O131 
O126   C127 
C127   C128 
C127   H140 
C127   H141 
C128   C129 
C128   H144 
C128   H145 
C129   C130 
C129   H146 
C129   H147 
C130   H153 
C130   H154 
C130   H155 
O131   C132 
C132   C133 
C132   H138 
C132   H139 
C133   C134 
C133   H142 
C133   H143 
C134   C135 
C134   H148 
C134   H149 
C135   H150 
C135   H151 
C135   H152 
N156   C157 
N156   C158 
N156   C159 
N156   Cu227 
C157   C163 
C157   H164 
C157   H165 
C158   C160 
C158   H161 
C158   H162 
C159   C166 
C159   H167 
C159   H168 
C160   H171 
C160   H172 
C160   N174 
C163   H169 
C163   H170 
C163   N174 
C166   H173 
C166   N174 
C166   H175 
C176   C177 
C176   C181 
C176   H193 
C177   C178 
C178   C179 
C178   O182 
C179   C180 
C179   H192 
C180   C181 
C181   O187 
O182   C183 
C183   C184 
C183   H196 
C183   H197 
C184   C185 
C184   H200 
C184   H201 
C185   C186 
C185   H202 
C185   H203 
C186   H209 
C186   H210 
C186   H211 
O187   C188 
C188   C189 
C188   H194 
C188   H195 
C189   C190 
C189   H198 
C189   H199 
C190   C191 
C190   H204 
C190   H205 
C191   H206 
C191   H207 
C191   H208 
Cu212   Cu213 
Cu212   O216 
Cu212   O219 
Cu212   O222 
Cu212   O225 
Cu212   N294 
Cu213   O214 
Cu213   O217 
Cu213   O220 
Cu213   O223 
O214   C215 
C215   O216 
C215   C244 
O217   C218 
C218   O219 
C218   C300 
O220   C221 
C221   O222 
C221   C392 
O223   C224 
C224   O225 
C224   C333 
Cu226   Cu227 
Cu226   O230 
Cu226   O233 
Cu226   O236 
Cu226   O239 
Cu226   N386 
Cu227   O228 
Cu227   O231 
Cu227   O234 
Cu227   O237 
O228   C229 
C229   O230 
C229   C336 
O231   C232 
C232   O233 
C232   C389 
O234   C235 
C235   O236 
C235   C297 
O237   C238 
C238   O239 
C238   C241 
C240   C241 
C240   C245 
C240   H257 
C241   C242 
C242   C243 
C242   O246 
C243   C244 
C243   H256 
C244   C245 
C245   O251 
O246   C247 
C247   C248 
C247   H260 
C247   H261 
C248   C249 
C248   H264 
C248   H265 
C249   C250 
C249   H266 
C249   H267 
C250   H273 
C250   H274 
C250   H275 
O251   C252 
C252   C253 
C252   H258 
C252   H259 
C253   C254 
C253   H262 
C253   H263 
C254   C255 
C254   H268 
C254   H269 
C255   H270 
C255   H271 
C255   H272 
N276   C277 
N276   C278 
N276   C279 
C277   C283 
C277   H284 
C277   H285 
C278   C280 
C278   H281 
C278   H282 
C279   C286 
C279   H287 
C279   H288 
C280   H291 
C280   H292 
C280   N294 
C283   H289 
C283   H290 
C283   N294 
C286   H293 
C286   N294 
C286   H295 
C296   C297 
C296   C301 
C296   H313 
C297   C298 
C298   C299 
C298   O302 
C299   C300 
C299   H312 
C300   C301 
C301   O307 
O302   C303 
C303   C304 
C303   H316 
C303   H317 
C304   C305 
C304   H320 
C304   H321 
C305   C306 
C305   H322 
C305   H323 
C306   H329 
C306   H330 
C306   H331 
O307   C308 
C308   C309 
C308   H314 
C308   H315 
C309   C310 
C309   H318 
C309   H319 
C310   C311 
C310   H324 
C310   H325 
C311   H326 
C311   H327 
C311   H328 
C332   C333 
C332   C337 
C332   H349 
C333   C334 
C334   C335 
C334   O338 
C335   C336 
C335   H348 
C336   C337 
C337   O343 
O338   C339 
C339   C340 
C339   H352 
C339   H353 
C340   C341 
C340   H356 
C340   H357 
C341   C342 
C341   H358 
C341   H359 
C342   H365 
C342   H366 
C342   H367 
O343   C344 
C344   C345 
C344   H350 
C344   H351 
C345   C346 
C345   H354 
C345   H355 
C346   C347 
C346   H360 
C346   H361 
C347   H362 
C347   H363 
C347   H364 
N368   C369 
N368   C370 
N368   C371 
C369   C375 
C369   H376 
C369   H377 
C370   C372 
C370   H373 
C370   H374 
C371   C378 
C371   H379 
C371   H380 
C372   H383 
C372   H384 
C372   N386 
C375   H381 
C375   H382 
C375   N386 
C378   H385 
C378   N386 
C378   H387 
C388   C389 
C388   C393 
C388   H405 
C389   C390 
C390   C391 
C390   O394 
C391   C392 
C391   H404 
C392   C393 
C393   O399 
O394   C395 
C395   C396 
C395   H408 
C395   H409 
C396   C397 
C396   H412 
C396   H413 
C397   C398 
C397   H414 
C397   H415 
C398   H421 
C398   H422 
C398   H423 
O399   C400 
C400   C401 
C400   H406 
C400   H407 
C401   C402 
C401   H410 
C401   H411 
C402   C403 
C402   H416 
C402   H417 
C403   H418 
C403   H419 
C403   H420 
  
#END  
