data_
_symmetry_cell_setting           triclinic 
_symmetry_space_group_name_H-M   'P 1' 
_symmetry_Int_Tables_number      1 
loop_ 
_symmetry_equiv_pos_site_id 
_symmetry_equiv_pos_as_xyz 
1 x,y,z 
_cell_length_a             10.658864        
_cell_length_b             18.512179        
_cell_length_c             19.010826        
_cell_angle_alpha          91.362537        
_cell_angle_beta           90.234101        
_cell_angle_gamma          89.573838        
loop_  
_atom_site_label   
_atom_site_type_symbol  
_atom_site_fract_x  
_atom_site_fract_y  
_atom_site_fract_z 
 Cu0  Cu     0.008558      0.002066      0.070225 
 Cu1  Cu    -0.000746     -0.008263     -0.070186 
 O2  O    -0.134897      0.061981     -0.059752 
 C3  C    -0.143277      0.101090      0.000168 
 O4  O    -0.117155      0.080796      0.061188 
 O5  O     0.110007      0.079416     -0.057095 
 C6  C     0.148483      0.107080      0.000731 
 O7  O     0.142870      0.075215      0.060098 
 O8  O    -0.109046     -0.096445     -0.067055 
 C9  C    -0.144439     -0.115033     -0.005739 
 O10  O    -0.121558     -0.082185      0.051812 
 O11  O     0.140550     -0.067309     -0.064293 
 C12  C     0.166680     -0.098629     -0.007546 
 O13  O     0.140704     -0.069621      0.052201 
 Cu14  Cu    -0.493849      0.496268      0.067430 
 Cu15  Cu     0.482325      0.492194     -0.071175 
 O16  O     0.364801     -0.422809     -0.066929 
 C17  C     0.329244     -0.401053     -0.005955 
 O18  O     0.352199     -0.432304      0.051622 
 O19  O    -0.379482     -0.431306     -0.057147 
 C20  C    -0.378085     -0.396178     -0.000958 
 O21  O    -0.408568     -0.415916      0.060395 
 O22  O     0.337672      0.428898     -0.054164 
 C23  C     0.345682      0.393234      0.002034 
 O24  O     0.396608      0.412288      0.063083 
 O25  O    -0.401246      0.409359     -0.060210 
 C26  C    -0.338418      0.396393     -0.004930 
 O27  O    -0.334134      0.439433      0.048700 
 C28  C    -0.307768      0.274896     -0.060147 
 C29  C    -0.283007      0.320799     -0.002374 
 C30  C    -0.205076      0.296201      0.050759 
 C31  C    -0.150468      0.226599      0.048903 
 C32  C    -0.187446      0.176698     -0.005236 
 C33  C    -0.271412      0.200323     -0.056711 
 O34  O    -0.177827      0.345909      0.104279 
 C35  C    -0.087999      0.327587      0.156705 
 C36  C     0.045408      0.337560      0.131874 
 C37  C     0.137580      0.328126      0.194288 
 C38  C     0.128353      0.249854      0.224836 
 O39  O    -0.320669      0.156550     -0.107218 
 C40  C    -0.445903      0.127878     -0.088013 
 C41  C     0.443992      0.166259     -0.117115 
 C42  C     0.455128      0.182827     -0.196345 
 C43  C     0.341795      0.223390     -0.225027 
 H44  H    -0.071549      0.211079      0.082533 
 H45  H    -0.362335      0.297667     -0.102082 
 H46  H    -0.440655      0.072677     -0.104776 
 H47  H    -0.454073      0.129078     -0.032833 
 H48  H    -0.102808      0.365447      0.202503 
 H49  H    -0.109131      0.276238      0.179074 
 H50  H     0.360619      0.133101     -0.104708 
 H51  H     0.424875      0.211624     -0.082746 
 H52  H     0.069747      0.299972      0.088748 
 H53  H     0.056215      0.390768      0.110178 
 H54  H     0.235953      0.343085      0.176323 
 H55  H     0.111311      0.366771      0.233166 
 H56  H    -0.463346      0.215700     -0.206243 
 H57  H     0.458691      0.130256     -0.221396 
 H58  H     0.330734      0.221923     -0.284053 
 H59  H     0.256960      0.198844     -0.203517 
 H60  H     0.348293      0.280684     -0.211957 
 H61  H     0.037367      0.240224      0.251995 
 H62  H     0.145286      0.204951      0.186282 
 H63  H     0.210777      0.245176      0.263416 
 N64  N    -0.004114      0.008226      0.325819 
 C65  C    -0.045022     -0.060506      0.291049 
 C66  C    -0.075111      0.070374      0.292866 
 C67  C     0.132705      0.009736      0.306379 
 C68  C    -0.068570      0.058922      0.212030 
 H69  H    -0.174616      0.062166      0.308447 
 H70  H    -0.042998      0.121715      0.313019 
 C71  C    -0.016900     -0.064751      0.209121 
 H72  H    -0.016365     -0.106810      0.318157 
 H73  H    -0.147210     -0.060376      0.299011 
 C74  C     0.144350      0.018879      0.226122 
 H75  H     0.177784      0.059153      0.336158 
 H76  H     0.181704     -0.039725      0.321300 
 H77  H     0.048608     -0.110628      0.200579 
 H78  H    -0.101816     -0.077234      0.179496 
 H79  H    -0.159995      0.050069      0.185902 
 H80  H    -0.035040      0.111211      0.190358 
 H81  H     0.217046     -0.015179      0.200651 
 N82  N     0.026724      0.005103      0.187723 
 H83  H     0.173686      0.071001      0.213387 
 C84  C     0.349190      0.273211      0.049609 
 C85  C     0.291793      0.318968     -0.000651 
 C86  C     0.201494      0.298333     -0.049418 
 C87  C     0.159808      0.228488     -0.047245 
 C88  C     0.207797      0.182034      0.002410 
 C89  C     0.304341      0.202308      0.049361 
 O90  O     0.136325      0.345336     -0.092311 
 C91  C     0.063863      0.395619     -0.050681 
 C92  C    -0.052331      0.409032     -0.094369 
 C93  C    -0.039769      0.459217     -0.157819 
 C94  C     0.003803     -0.466112     -0.137241 
 O95  O     0.344435      0.148749      0.091176 
 C96  C     0.471256      0.151098      0.115154 
 C97  C     0.478065      0.086993      0.165784 
 C98  C     0.465501      0.009853      0.132143 
 C99  C    -0.447341      0.000516      0.068279 
 H100  H     0.102743      0.207914     -0.093232 
 H101  H     0.426394      0.287634      0.086906 
 H102  H    -0.466520      0.140484      0.072205 
 H103  H    -0.496981      0.204619      0.137391 
 H104  H     0.043828      0.382157      0.002957 
 H105  H     0.126407      0.444043     -0.044462 
 H106  H    -0.445611      0.091876      0.202100 
 H107  H     0.391256      0.093589      0.195243 
 H108  H    -0.083174      0.357497     -0.111906 
 H109  H    -0.136740      0.430854     -0.066382 
 H110  H     0.024842      0.438180     -0.196914 
 H111  H    -0.130449      0.457995     -0.185459 
 H112  H     0.489475     -0.031131      0.170277 
 H113  H     0.365976     -0.001655      0.116355 
 H114  H    -0.350173      0.007581      0.079530 
 H115  H    -0.456044     -0.054102      0.043509 
 H116  H    -0.474218      0.040188      0.028165 
 H117  H     0.092694     -0.466996     -0.113358 
 H118  H     0.017966     -0.428151     -0.180745 
 H119  H    -0.050633     -0.434556     -0.097415 
 C120  C     0.352947     -0.274176     -0.037574 
 C121  C     0.283234     -0.324051     -0.001475 
 C122  C     0.168648     -0.302982      0.027615 
 C123  C     0.133316     -0.228415      0.026175 
 C124  C     0.208242     -0.175265     -0.005688 
 C125  C     0.318037     -0.200606     -0.036464 
 O126  O     0.097504     -0.355223      0.056019 
 C127  C    -0.035784     -0.343539      0.066651 
 C128  C    -0.087393     -0.417738      0.088897 
 C129  C     0.004330     -0.457080      0.138142 
 C130  C     0.037204     -0.420472      0.209368 
 O131  O     0.383172     -0.149966     -0.064551 
 C132  C    -0.496365     -0.162728     -0.091643 
 C133  C    -0.448168     -0.093658     -0.127102 
 C134  C     0.494664     -0.078396     -0.201291 
 C135  C     0.348972     -0.056110     -0.199687 
 H136  H     0.041755     -0.205882      0.052803 
 H137  H     0.440323     -0.295006     -0.062841 
 H138  H    -0.437244     -0.174515     -0.048481 
 H139  H     0.483729     -0.210869     -0.130353 
 H140  H    -0.050686     -0.301586      0.107673 
 H141  H    -0.072717     -0.319768      0.018905 
 H142  H    -0.464654     -0.046617     -0.092964 
 H143  H    -0.347610     -0.101291     -0.130422 
 H144  H    -0.183921     -0.412377      0.110710 
 H145  H    -0.104446     -0.450243      0.039251 
 H146  H    -0.039480      0.490496      0.151191 
 H147  H     0.091910     -0.464704      0.110985 
 H148  H    -0.461344     -0.032484     -0.224022 
 H149  H    -0.493190     -0.122897     -0.236650 
 H150  H     0.289332     -0.105637     -0.192231 
 H151  H     0.340181     -0.021509     -0.150258 
 H152  H     0.320385     -0.034023     -0.250888 
 H153  H     0.094906     -0.370173      0.204114 
 H154  H    -0.050491     -0.413337      0.240798 
 H155  H     0.090599     -0.459633      0.236880 
 N156  N    -0.490213     -0.496307      0.316264 
 C157  C     0.387693     -0.468924      0.298244 
 C158  C    -0.391323     -0.449440      0.286121 
 C159  C    -0.479087      0.427240      0.288918 
 C160  C    -0.412675     -0.444706      0.208014 
 H161  H    -0.401090     -0.390132      0.306688 
 H162  H    -0.290206     -0.469421      0.293602 
 C163  C     0.370342     -0.482407      0.218397 
 H164  H     0.313040     -0.496217      0.323678 
 H165  H     0.379802     -0.407609      0.313272 
 C166  C    -0.470726      0.428838      0.209930 
 H167  H    -0.381597      0.408905      0.304246 
 H168  H     0.436366      0.398056      0.305865 
 H169  H     0.311182      0.470722      0.206255 
 H170  H     0.318828     -0.437547      0.197667 
 H171  H    -0.455422     -0.395284      0.195351 
 H172  H    -0.323257     -0.452598      0.184570 
 H173  H     0.460410      0.395254      0.184344 
 N174  N     0.493251     -0.498780      0.184728 
 H175  H    -0.377738      0.417521      0.189244 
 C176  C    -0.329134     -0.274106      0.061391 
 C177  C    -0.330588     -0.317166     -0.001952 
 C178  C    -0.277794     -0.293047     -0.064030 
 C179  C    -0.218115     -0.227924     -0.066597 
 C180  C    -0.215398     -0.186154     -0.003677 
 C181  C    -0.272117     -0.208750      0.058613 
 O182  O    -0.293708     -0.334651     -0.124823 
 C183  C    -0.189573     -0.336747     -0.175330 
 C184  C    -0.225974     -0.308375     -0.245316 
 C185  C    -0.274939     -0.227815     -0.247531 
 C186  C    -0.279043     -0.199294     -0.320658 
 O187  O    -0.261586     -0.164446      0.116276 
 C188  C    -0.286632     -0.190754      0.184060 
 C189  C    -0.172871     -0.230175      0.217173 
 C190  C    -0.199311     -0.247778      0.295414 
 C191  C    -0.080225     -0.268968      0.336049 
 H192  H    -0.167649     -0.205687     -0.111674 
 H193  H    -0.359547     -0.300226      0.110724 
 H194  H    -0.308893     -0.148540      0.220704 
 H195  H    -0.375198     -0.223290      0.181605 
 H196  H    -0.106787     -0.316339     -0.148564 
 H197  H    -0.173317     -0.394624     -0.185769 
 H198  H    -0.162773     -0.286425      0.189073 
 H199  H    -0.077002     -0.203575      0.217843 
 H200  H    -0.131606     -0.315135     -0.274839 
 H201  H    -0.281822     -0.346772     -0.275402 
 H202  H    -0.365862     -0.222939     -0.218802 
 H203  H    -0.214311     -0.192465     -0.215645 
 H204  H    -0.236152     -0.204892      0.328423 
 H205  H    -0.273363     -0.287559      0.302502 
 H206  H    -0.024586     -0.223547      0.355590 
 H207  H    -0.095855     -0.300220      0.387358 
 H208  H    -0.021791     -0.305523      0.302838 
 H209  H    -0.183175     -0.197633     -0.341184 
 H210  H    -0.328692     -0.233478     -0.355696 
 H211  H    -0.327105     -0.150128     -0.317249 
 Cu212  Cu     0.013497      0.002658     -0.433606 
 Cu213  Cu    -0.008083     -0.002515      0.430089 
 O214  O    -0.133563      0.078445      0.441193 
 C215  C    -0.160628      0.107603     -0.499148 
 O216  O    -0.145232      0.076773     -0.438841 
 O217  O     0.116516      0.075357      0.444297 
 C218  C     0.151710      0.106365     -0.499731 
 O219  O     0.131289      0.079952     -0.439099 
 O220  O    -0.151816     -0.070622      0.435518 
 C221  C    -0.155344     -0.106872      0.492114 
 O222  O    -0.104371     -0.084479     -0.447775 
 O223  O     0.120985     -0.078030      0.437229 
 C224  C     0.158517     -0.101350      0.495707 
 O225  O     0.149717     -0.071544     -0.444118 
 Cu226  Cu     0.498736     -0.496831     -0.434058 
 Cu227  Cu     0.499593      0.498945      0.429183 
 O228  O     0.376472     -0.415526      0.454932 
 C229  C     0.359712     -0.384514     -0.486214 
 O230  O     0.389599     -0.410384     -0.427928 
 O231  O    -0.383351     -0.419736      0.426491 
 C232  C    -0.348643     -0.397011      0.486478 
 O233  O    -0.362883     -0.428627     -0.455215 
 O234  O     0.373838      0.421004      0.436093 
 C235  C     0.347850      0.394839      0.497249 
 O236  O     0.368496      0.424734     -0.443150 
 O237  O    -0.361807      0.428784      0.442060 
 C238  C    -0.340534      0.397903     -0.499485 
 O239  O    -0.385677      0.422822     -0.444592 
 C240  C    -0.334157      0.274397     -0.450859 
 C241  C    -0.280597      0.323813     -0.494842 
 C242  C    -0.181765      0.303256      0.461269 
 C243  C    -0.147426      0.231102      0.459534 
 C244  C    -0.208687      0.181363     -0.497611 
 C245  C    -0.310983      0.200050     -0.454968 
 O246  O    -0.131663      0.356912      0.420857 
 C247  C    -0.006142      0.348388      0.398661 
 C248  C     0.043842      0.423547      0.404154 
 C249  C    -0.037330      0.482707      0.369886 
 C250  C    -0.003253     -0.435508      0.392240 
 O251  O    -0.374187      0.151218     -0.417305 
 C252  C    -0.490977      0.167884     -0.380668 
 C253  C     0.411891      0.110108     -0.385861 
 C254  C     0.436509      0.036329     -0.352965 
 C255  C    -0.429854      0.008696     -0.376200 
 H256  H    -0.081332      0.203367      0.421355 
 H257  H    -0.412519      0.289579     -0.416705 
 H258  H    -0.474069      0.187069     -0.327335 
 H259  H     0.469032      0.214130     -0.405334 
 H260  H     0.044871      0.309935      0.430223 
 H261  H    -0.015946      0.323589      0.344363 
 H262  H     0.318682      0.129777     -0.362688 
 H263  H     0.384818      0.099085     -0.441177 
 H264  H     0.047864      0.441165      0.456829 
 H265  H     0.135140      0.428292      0.380776 
 H266  H    -0.027184      0.475432      0.313923 
 H267  H    -0.135883      0.467948      0.382356 
 H268  H     0.423020      0.047098     -0.295365 
 H269  H     0.369197     -0.004933     -0.371602 
 H270  H    -0.415317      0.006916     -0.433221 
 H271  H    -0.355325      0.039667     -0.346009 
 H272  H    -0.412451     -0.050632     -0.361904 
 H273  H     0.001386     -0.425717      0.447285 
 H274  H     0.086857     -0.419783      0.374045 
 H275  H    -0.081013     -0.401346      0.373193 
 N276  N    -0.009967     -0.001666     -0.181302 
 C277  C    -0.138861      0.013406     -0.209210 
 C278  C     0.071367      0.055420     -0.208405 
 C279  C     0.037157     -0.070977     -0.207558 
 C280  C     0.062110      0.054061     -0.290267 
 H281  H     0.045464      0.108244     -0.189474 
 H282  H     0.172503      0.045571     -0.191126 
 C283  C    -0.138593      0.005356     -0.290756 
 H284  H    -0.199309     -0.030298     -0.187564 
 H285  H    -0.180426      0.066365     -0.197998 
 C286  C     0.037281     -0.069999     -0.288314 
 H287  H     0.131217     -0.077116     -0.189116 
 H288  H    -0.016553     -0.113722     -0.184480 
 H289  H    -0.201208     -0.040809     -0.313102 
 H290  H    -0.188664      0.049511     -0.315154 
 H291  H     0.018139      0.108294     -0.300822 
 H292  H     0.159288      0.049892     -0.314307 
 H293  H    -0.010787     -0.115979     -0.312397 
 N294  N    -0.011211     -0.003673     -0.319616 
 H295  H     0.136067     -0.075275     -0.303900 
 C296  C     0.228109      0.300133     -0.450964 
 C297  C     0.291566      0.321888      0.490063 
 C298  C     0.315441      0.272695      0.435333 
 C299  C     0.278983      0.199237      0.441353 
 C300  C     0.208775      0.180947      0.499296 
 C301  C     0.180265      0.230144     -0.446455 
 O302  O     0.381850      0.292806      0.380602 
 C303  C     0.454628      0.246376      0.336135 
 C304  C    -0.433311      0.220516      0.377803 
 C305  C    -0.328847      0.182109      0.329039 
 C306  C    -0.286395      0.217592      0.264508 
 O307  O     0.111687      0.214995     -0.387639 
 C308  C     0.086925      0.263802     -0.328893 
 C309  C    -0.023509      0.313259     -0.339384 
 C310  C    -0.144944      0.273476     -0.311461 
 C311  C    -0.153623      0.259507     -0.233046 
 H312  H     0.283081      0.160315      0.395055 
 H313  H     0.211276      0.335986     -0.407208 
 H314  H     0.074797      0.231471     -0.282400 
 H315  H     0.176880      0.293023     -0.316996 
 H316  H     0.407480      0.201769      0.308726 
 H317  H     0.487272      0.280561      0.293018 
 H318  H     0.000094      0.363623     -0.313381 
 H319  H    -0.040614      0.325859     -0.395732 
 H320  H    -0.386260      0.267501      0.407164 
 H321  H    -0.468681      0.184337      0.420300 
 H322  H    -0.247972      0.163394      0.358883 
 H323  H    -0.376756      0.133379      0.306572 
 H324  H    -0.230945      0.303156     -0.318027 
 H325  H    -0.149052      0.221478     -0.340437 
 H326  H    -0.230636      0.223670     -0.217808 
 H327  H    -0.067606      0.229077     -0.219970 
 H328  H    -0.175631      0.312305     -0.213114 
 H329  H    -0.255743      0.271808      0.270135 
 H330  H    -0.202214      0.193376      0.242290 
 H331  H    -0.366360      0.217365      0.225572 
 C332  C     0.227877     -0.203184     -0.432790 
 C333  C     0.217335     -0.174863      0.498271 
 C334  C     0.241001     -0.215169      0.437741 
 C335  C     0.277739     -0.286732      0.445595 
 C336  C     0.305926     -0.313120     -0.487918 
 C337  C     0.282566     -0.274164     -0.427581 
 O338  O     0.213989     -0.185135      0.373660 
 C339  C     0.305888     -0.195890      0.315895 
 C340  C     0.253720     -0.251100      0.260649 
 C341  C     0.331647     -0.257850      0.195581 
 C342  C     0.343229     -0.186358      0.156242 
 O343  O     0.290510     -0.305936     -0.362583 
 C344  C     0.340286     -0.258205     -0.307057 
 C345  C     0.316366     -0.295842     -0.236203 
 C346  C     0.184512     -0.307082     -0.211552 
 C347  C     0.115320     -0.236095     -0.194525 
 H348  H     0.276323     -0.319982      0.396628 
 H349  H     0.189085     -0.172213     -0.388187 
 H350  H     0.443178     -0.252494     -0.322268 
 H351  H     0.298697     -0.204584     -0.303479 
 H352  H     0.325578     -0.142819      0.295818 
 H353  H     0.394336     -0.214153      0.337633 
 H354  H     0.361983     -0.351812     -0.237534 
 H355  H     0.370696     -0.267776     -0.195577 
 H356  H     0.252510     -0.304723      0.285791 
 H357  H     0.157220     -0.233143      0.249523 
 H358  H     0.429192     -0.272330      0.210299 
 H359  H     0.290357     -0.303239      0.163687 
 H360  H     0.134129     -0.338808     -0.254982 
 H361  H     0.192553     -0.333684     -0.156720 
 H362  H     0.149342     -0.214533     -0.143039 
 H363  H     0.133566     -0.192701     -0.233093 
 H364  H     0.014263     -0.246541     -0.183849 
 H365  H     0.388123     -0.185976      0.105604 
 H366  H     0.250553     -0.157968      0.156354 
 H367  H     0.402866     -0.146274      0.189471 
 N368  N     0.488055      0.488393     -0.192257 
 C369  C    -0.436644     -0.453477     -0.220765 
 C370  C    -0.459429      0.417455     -0.217124 
 C371  C     0.355069      0.489278     -0.221007 
 C372  C    -0.459095      0.415649     -0.306836 
 H373  H    -0.362586      0.410450     -0.189147 
 H374  H     0.486668      0.370537     -0.193562 
 C375  C    -0.434490     -0.453844     -0.301448 
 H376  H    -0.476682     -0.402485     -0.203980 
 H377  H    -0.338569     -0.458719     -0.199939 
 C378  C     0.356456      0.490183     -0.301884 
 H379  H     0.293240      0.448540     -0.198387 
 H380  H     0.318531     -0.457206     -0.207016 
 H381  H    -0.471985     -0.399833     -0.324462 
 H382  H    -0.336441     -0.463306     -0.321989 
 H383  H    -0.370684      0.401886     -0.335217 
 H384  H     0.467112      0.378271     -0.320874 
 H385  H     0.320941     -0.456853     -0.319643 
 N386  N     0.483845      0.486046     -0.326599 
 H387  H     0.302237      0.445220     -0.320805 
 C388  C    -0.358362     -0.269898      0.453635 
 C389  C    -0.296008     -0.321692      0.489281 
 C390  C    -0.186586     -0.306917     -0.472800 
 C391  C    -0.145076     -0.237006     -0.469311 
 C392  C    -0.213688     -0.180852      0.495670 
 C393  C    -0.325948     -0.198386      0.459408 
 O394  O    -0.120926     -0.365745     -0.446897 
 C395  C    -0.008755     -0.352960     -0.407318 
 C396  C     0.044594     -0.425054     -0.380042 
 C397  C    -0.058394     -0.473215     -0.352591 
 C398  C    -0.109853      0.473666     -0.406255 
 O399  O    -0.401750     -0.147123      0.428761 
 C400  C    -0.468398     -0.101818      0.479640 
 C401  C     0.445980     -0.044063      0.441835 
 C402  C    -0.482226      0.013044      0.399855 
 C403  C    -0.414793     -0.022119      0.334945 
 H404  H    -0.050456     -0.222103     -0.448107 
 H405  H    -0.443343     -0.281072      0.420091 
 H406  H     0.462432     -0.138003     -0.492324 
 H407  H    -0.404123     -0.073763     -0.483519 
 H408  H     0.055585     -0.331996     -0.443682 
 H409  H    -0.017892     -0.315323     -0.362283 
 H410  H     0.379586     -0.070168      0.407499 
 H411  H     0.398821     -0.012293      0.487716 
 H412  H     0.089608     -0.450481     -0.427797 
 H413  H     0.127176     -0.410576     -0.347666 
 H414  H    -0.024909     -0.498653     -0.304915 
 H415  H    -0.130949     -0.436450     -0.339179 
 H416  H     0.454868      0.057229      0.383325 
 H417  H    -0.411652      0.034471      0.435213 
 H418  H    -0.476384     -0.047912      0.295581 
 H419  H    -0.364506      0.022714      0.311029 
 H420  H    -0.347075     -0.062616      0.351604 
 H421  H    -0.047416      0.438917     -0.431001 
 H422  H    -0.167632      0.437589     -0.375085 
 H423  H    -0.165172     -0.495688     -0.446639 
loop_  
_geom_bond_atom_site_label_1  
_geom_bond_atom_site_label_2  
Cu0   Cu1 
Cu0   O4 
Cu0   O7 
Cu0   O10 
Cu0   O13 
Cu0   N82 
Cu1   O2 
Cu1   O5 
Cu1   O8 
Cu1   O11 
Cu1   N276 
O2   C3 
C3   O4 
C3   C32 
O5   C6 
C6   O7 
C6   C88 
O8   C9 
C9   O10 
C9   C180 
O11   C12 
C12   O13 
C12   C124 
Cu14   Cu15 
Cu14   O18 
Cu14   O21 
Cu14   O24 
Cu14   O27 
Cu14   N174 
Cu15   O16 
Cu15   O19 
Cu15   O22 
Cu15   O25 
Cu15   N368 
O16   C17 
C17   O18 
C17   C121 
O19   C20 
C20   O21 
C20   C177 
O22   C23 
C23   O24 
C23   C85 
O25   C26 
C26   O27 
C26   C29 
C28   C29 
C28   C33 
C28   H45 
C29   C30 
C30   C31 
C30   O34 
C31   C32 
C31   H44 
C32   C33 
C33   O39 
O34   C35 
C35   C36 
C35   H48 
C35   H49 
C36   C37 
C36   H52 
C36   H53 
C37   C38 
C37   H54 
C37   H55 
C38   H61 
C38   H62 
C38   H63 
O39   C40 
C40   C41 
C40   H46 
C40   H47 
C41   C42 
C41   H50 
C41   H51 
C42   C43 
C42   H56 
C42   H57 
C43   H58 
C43   H59 
C43   H60 
N64   C65 
N64   C66 
N64   C67 
N64   Cu213 
C65   C71 
C65   H72 
C65   H73 
C66   C68 
C66   H69 
C66   H70 
C67   C74 
C67   H75 
C67   H76 
C68   H79 
C68   H80 
C68   N82 
C71   H77 
C71   H78 
C71   N82 
C74   H81 
C74   N82 
C74   H83 
C84   C85 
C84   C89 
C84   H101 
C85   C86 
C86   C87 
C86   O90 
C87   C88 
C87   H100 
C88   C89 
C89   O95 
O90   C91 
C91   C92 
C91   H104 
C91   H105 
C92   C93 
C92   H108 
C92   H109 
C93   C94 
C93   H110 
C93   H111 
C94   H117 
C94   H118 
C94   H119 
O95   C96 
C96   C97 
C96   H102 
C96   H103 
C97   C98 
C97   H106 
C97   H107 
C98   C99 
C98   H112 
C98   H113 
C99   H114 
C99   H115 
C99   H116 
C120   C121 
C120   C125 
C120   H137 
C121   C122 
C122   C123 
C122   O126 
C123   C124 
C123   H136 
C124   C125 
C125   O131 
O126   C127 
C127   C128 
C127   H140 
C127   H141 
C128   C129 
C128   H144 
C128   H145 
C129   C130 
C129   H146 
C129   H147 
C130   H153 
C130   H154 
C130   H155 
O131   C132 
C132   C133 
C132   H138 
C132   H139 
C133   C134 
C133   H142 
C133   H143 
C134   C135 
C134   H148 
C134   H149 
C135   H150 
C135   H151 
C135   H152 
N156   C157 
N156   C158 
N156   C159 
N156   Cu227 
C157   C163 
C157   H164 
C157   H165 
C158   C160 
C158   H161 
C158   H162 
C159   C166 
C159   H167 
C159   H168 
C160   H171 
C160   H172 
C160   N174 
C163   H169 
C163   H170 
C163   N174 
C166   H173 
C166   N174 
C166   H175 
C176   C177 
C176   C181 
C176   H193 
C177   C178 
C178   C179 
C178   O182 
C179   C180 
C179   H192 
C180   C181 
C181   O187 
O182   C183 
C183   C184 
C183   H196 
C183   H197 
C184   C185 
C184   H200 
C184   H201 
C185   C186 
C185   H202 
C185   H203 
C186   H209 
C186   H210 
C186   H211 
O187   C188 
C188   C189 
C188   H194 
C188   H195 
C189   C190 
C189   H198 
C189   H199 
C190   C191 
C190   H204 
C190   H205 
C191   H206 
C191   H207 
C191   H208 
Cu212   Cu213 
Cu212   O216 
Cu212   O219 
Cu212   O222 
Cu212   O225 
Cu212   N294 
Cu213   O214 
Cu213   O217 
Cu213   O220 
Cu213   O223 
O214   C215 
C215   O216 
C215   C244 
O217   C218 
C218   O219 
C218   C300 
O220   C221 
C221   O222 
C221   C392 
O223   C224 
C224   O225 
C224   C333 
Cu226   Cu227 
Cu226   O230 
Cu226   O233 
Cu226   O236 
Cu226   O239 
Cu226   N386 
Cu227   O228 
Cu227   O231 
Cu227   O234 
Cu227   O237 
O228   C229 
C229   O230 
C229   C336 
O231   C232 
C232   O233 
C232   C389 
O234   C235 
C235   O236 
C235   C297 
O237   C238 
C238   O239 
C238   C241 
C240   C241 
C240   C245 
C240   H257 
C241   C242 
C242   C243 
C242   O246 
C243   C244 
C243   H256 
C244   C245 
C245   O251 
O246   C247 
C247   C248 
C247   H260 
C247   H261 
C248   C249 
C248   H264 
C248   H265 
C249   C250 
C249   H266 
C249   H267 
C250   H273 
C250   H274 
C250   H275 
O251   C252 
C252   C253 
C252   H258 
C252   H259 
C253   C254 
C253   H262 
C253   H263 
C254   C255 
C254   H268 
C254   H269 
C255   H270 
C255   H271 
C255   H272 
N276   C277 
N276   C278 
N276   C279 
C277   C283 
C277   H284 
C277   H285 
C278   C280 
C278   H281 
C278   H282 
C279   C286 
C279   H287 
C279   H288 
C280   H291 
C280   H292 
C280   N294 
C283   H289 
C283   H290 
C283   N294 
C286   H293 
C286   N294 
C286   H295 
C296   C297 
C296   C301 
C296   H313 
C297   C298 
C298   C299 
C298   O302 
C299   C300 
C299   H312 
C300   C301 
C301   O307 
O302   C303 
C303   C304 
C303   H316 
C303   H317 
C304   C305 
C304   H320 
C304   H321 
C305   C306 
C305   H322 
C305   H323 
C306   H329 
C306   H330 
C306   H331 
O307   C308 
C308   C309 
C308   H314 
C308   H315 
C309   C310 
C309   H318 
C309   H319 
C310   C311 
C310   H324 
C310   H325 
C311   H326 
C311   H327 
C311   H328 
C332   C333 
C332   C337 
C332   H349 
C333   C334 
C334   C335 
C334   O338 
C335   C336 
C335   H348 
C336   C337 
C337   O343 
O338   C339 
C339   C340 
C339   H352 
C339   H353 
C340   C341 
C340   H356 
C340   H357 
C341   C342 
C341   H358 
C341   H359 
C342   H365 
C342   H366 
C342   H367 
O343   C344 
C344   C345 
C344   H350 
C344   H351 
C345   C346 
C345   H354 
C345   H355 
C346   C347 
C346   H360 
C346   H361 
C347   H362 
C347   H363 
C347   H364 
N368   C369 
N368   C370 
N368   C371 
C369   C375 
C369   H376 
C369   H377 
C370   C372 
C370   H373 
C370   H374 
C371   C378 
C371   H379 
C371   H380 
C372   H383 
C372   H384 
C372   N386 
C375   H381 
C375   H382 
C375   N386 
C378   H385 
C378   N386 
C378   H387 
C388   C389 
C388   C393 
C388   H405 
C389   C390 
C390   C391 
C390   O394 
C391   C392 
C391   H404 
C392   C393 
C393   O399 
O394   C395 
C395   C396 
C395   H408 
C395   H409 
C396   C397 
C396   H412 
C396   H413 
C397   C398 
C397   H414 
C397   H415 
C398   H421 
C398   H422 
C398   H423 
O399   C400 
C400   C401 
C400   H406 
C400   H407 
C401   C402 
C401   H410 
C401   H411 
C402   C403 
C402   H416 
C402   H417 
C403   H418 
C403   H419 
C403   H420 
  
#END  
