data_
_symmetry_cell_setting           triclinic 
_symmetry_space_group_name_H-M   'P 1' 
_symmetry_Int_Tables_number      1 
loop_ 
_symmetry_equiv_pos_site_id 
_symmetry_equiv_pos_as_xyz 
1 x,y,z 
_cell_length_a             10.607645        
_cell_length_b             18.597895        
_cell_length_c             19.158321        
_cell_angle_alpha          92.500374        
_cell_angle_beta           96.720069        
_cell_angle_gamma          89.571736        
loop_  
_atom_site_label   
_atom_site_type_symbol  
_atom_site_fract_x  
_atom_site_fract_y  
_atom_site_fract_z 
 Cu0  Cu    -0.004738     -0.006398      0.064579 
 Cu1  Cu    -0.005750     -0.012513     -0.072057 
 O2  O    -0.135640      0.064644     -0.071500 
 C3  C    -0.159863      0.094483     -0.013510 
 O4  O    -0.138399      0.067511      0.046735 
 O5  O     0.122849      0.065603     -0.054263 
 C6  C     0.148259      0.098141      0.005537 
 O7  O     0.123003      0.073593      0.063446 
 O8  O    -0.132655     -0.092106     -0.068392 
 C9  C    -0.159784     -0.113783     -0.009654 
 O10  O    -0.138115     -0.079853      0.049470 
 O11  O     0.126386     -0.087400     -0.057043 
 C12  C     0.150122     -0.115314      0.002520 
 O13  O     0.119888     -0.088279      0.060618 
 Cu14  Cu    -0.477202      0.494360      0.070598 
 Cu15  Cu    -0.484357      0.489034     -0.066393 
 O16  O     0.394517     -0.427560     -0.059628 
 C17  C     0.365344     -0.401906     -0.000785 
 O18  O     0.389706     -0.431326      0.057878 
 O19  O    -0.346253     -0.439831     -0.051662 
 C20  C    -0.321926     -0.406088      0.007383 
 O21  O    -0.350436     -0.426642      0.066231 
 O22  O     0.384469      0.410998     -0.065585 
 C23  C     0.364873      0.384879     -0.007313 
 O24  O     0.394140      0.416294      0.052738 
 O25  O    -0.353348      0.413308     -0.049545 
 C26  C    -0.326381      0.387640      0.010988 
 O27  O    -0.346594      0.418112      0.069435 
 C28  C    -0.191923      0.295124     -0.038707 
 C29  C    -0.275097      0.312689      0.010692 
 C30  C    -0.323305      0.259776      0.050149 
 C31  C    -0.292445      0.187559      0.036323 
 C32  C    -0.209439      0.169887     -0.013136 
 C33  C    -0.161738      0.222848     -0.052879 
 O34  O    -0.403220      0.280232      0.098583 
 C35  C    -0.444922      0.226993      0.142567 
 C36  C    -0.334825      0.203609      0.195613 
 C37  C    -0.283803      0.263850      0.248496 
 C38  C    -0.174994      0.238444      0.301351 
 O39  O    -0.083332      0.202524     -0.102129 
 C40  C    -0.041320      0.255653     -0.146287 
 C41  C    -0.150152      0.280271     -0.199541 
 C42  C    -0.210633      0.219758     -0.249231 
 C43  C    -0.322118      0.245922     -0.300064 
 H44  H    -0.329397      0.144303      0.064999 
 H45  H    -0.155267      0.338449     -0.067405 
 H46  H     0.003003      0.300947     -0.113568 
 H47  H     0.034527      0.230565     -0.173493 
 H48  H     0.478700      0.251581      0.169744 
 H49  H    -0.488363      0.181568      0.109746 
 H50  H    -0.225451      0.306249     -0.172484 
 H51  H    -0.114715      0.322354     -0.230805 
 H52  H    -0.365160      0.157879      0.224065 
 H53  H    -0.255233      0.182809      0.168614 
 H54  H    -0.251332      0.309050      0.219969 
 H55  H    -0.360967      0.285357      0.277029 
 H56  H    -0.138370      0.195105     -0.279446 
 H57  H    -0.243431      0.176752     -0.218111 
 H58  H    -0.360830      0.202127     -0.336437 
 H59  H    -0.399499      0.267208     -0.271840 
 H60  H    -0.292992      0.289106     -0.331851 
 H61  H    -0.204389      0.193614      0.331194 
 H62  H    -0.093387      0.220185      0.274937 
 H63  H    -0.142421      0.282057      0.339321 
 N64  N    -0.029853     -0.011095      0.313306 
 C65  C     0.010437      0.058550      0.289429 
 C66  C     0.057752     -0.067459      0.290575 
 C67  C    -0.158097     -0.027099      0.277306 
 C68  C     0.061102     -0.068695      0.209268 
 H69  H     0.153705     -0.057911      0.317972 
 H70  H     0.026497     -0.119742      0.307036 
 C71  C     0.007286      0.056757      0.207845 
 H72  H    -0.051431      0.101642      0.307476 
 H73  H     0.107138      0.070113      0.314532 
 C74  C    -0.156285     -0.031261      0.195642 
 H75  H    -0.191427     -0.078240      0.295661 
 H76  H    -0.224208      0.015096      0.292905 
 H77  H    -0.063326      0.095560      0.185228 
 H78  H     0.100566      0.072045      0.193172 
 H79  H     0.157480     -0.056541      0.196977 
 H80  H     0.036343     -0.122513      0.185317 
 H81  H    -0.224116      0.007397      0.170173 
 N82  N    -0.028465     -0.015209      0.176763 
 H83  H    -0.184814     -0.085320      0.173887 
 C84  C     0.267837      0.290005      0.056875 
 C85  C     0.309921      0.310219     -0.006121 
 C86  C     0.302639      0.260079     -0.063505 
 C87  C     0.248279      0.192352     -0.058309 
 C88  C     0.205468      0.172286      0.004568 
 C89  C     0.214363      0.222100      0.062272 
 O90  O     0.346382      0.274574     -0.125528 
 C91  C     0.476360      0.254533     -0.129995 
 C92  C     0.490985      0.175092     -0.150634 
 C93  C     0.418200      0.151693     -0.222135 
 C94  C     0.438342      0.072337     -0.242855 
 O95  O     0.174815      0.206921      0.125187 
 C96  C     0.045323      0.225769      0.132330 
 C97  C     0.029532      0.304627      0.154274 
 C98  C     0.105398      0.326722      0.225232 
 C99  C     0.081012      0.404703      0.249107 
 H100  H     0.241782      0.155661     -0.104483 
 H101  H     0.274747      0.326666      0.103094 
 H102  H    -0.014059      0.212070      0.082577 
 H103  H     0.014093      0.192069      0.172504 
 H104  H    -0.487000      0.288048     -0.168788 
 H105  H    -0.467933      0.267770     -0.079049 
 H106  H     0.055952      0.338857      0.112946 
 H107  H    -0.071992      0.315323      0.157252 
 H108  H    -0.407374      0.163279     -0.151635 
 H109  H     0.461245      0.142135     -0.109228 
 H110  H     0.316160      0.162023     -0.221001 
 H111  H     0.447409      0.185157     -0.263326 
 H112  H     0.081954      0.290652      0.265867 
 H113  H     0.207446      0.319027      0.221629 
 H114  H     0.109704      0.442439      0.211525 
 H115  H    -0.019950      0.414142      0.254284 
 H116  H     0.135101      0.418148      0.300361 
 H117  H    -0.460518      0.059900     -0.244365 
 H118  H     0.402239      0.037141     -0.205362 
 H119  H     0.388158      0.058101     -0.294970 
 C120  C     0.161973     -0.240732      0.044478 
 C121  C     0.209226     -0.188929      0.003400 
 C122  C     0.306967     -0.205742     -0.038019 
 C123  C     0.355758     -0.276106     -0.039624 
 C124  C     0.307393     -0.328121      0.000583 
 C125  C     0.209943     -0.311371      0.042308 
 O126  O     0.350110     -0.151498     -0.075132 
 C127  C     0.469830     -0.159860     -0.102026 
 C128  C    -0.491945     -0.090086     -0.132563 
 C129  C    -0.462518     -0.026248     -0.079272 
 C130  C     0.420833      0.010163     -0.052785 
 O131  O     0.166510     -0.366010      0.078903 
 C132  C     0.045213     -0.359087      0.104432 
 C133  C     0.005005     -0.430589      0.131090 
 C134  C    -0.019159     -0.492650      0.075240 
 C135  C     0.100760      0.471349      0.052323 
 H136  H     0.432711     -0.290249     -0.070990 
 H137  H     0.085773     -0.226682      0.076349 
 H138  H     0.051144     -0.317256      0.147130 
 H139  H    -0.024820     -0.341341      0.061837 
 H140  H    -0.458234     -0.175661     -0.059509 
 H141  H     0.462063     -0.203544     -0.142821 
 H142  H     0.076540     -0.447232      0.173678 
 H143  H    -0.083224     -0.421884      0.155310 
 H144  H    -0.406596     -0.100807     -0.158841 
 H145  H     0.433521     -0.074716     -0.174162 
 H146  H    -0.398117     -0.044170     -0.034040 
 H147  H    -0.408534      0.014216     -0.103698 
 H148  H    -0.076986      0.466194      0.096136 
 H149  H    -0.078187     -0.473082      0.028759 
 H150  H     0.159703      0.448764      0.097035 
 H151  H     0.076454      0.427266      0.013083 
 H152  H     0.160635     -0.490885      0.028808 
 H153  H     0.355198      0.030201     -0.096187 
 H154  H     0.366489     -0.026590     -0.024654 
 H155  H     0.448911      0.056187     -0.016550 
 N156  N    -0.494560      0.495826      0.319767 
 C157  C     0.435843     -0.441754      0.288926 
 C158  C    -0.362387      0.498007      0.302005 
 C159  C     0.445879      0.429386      0.286515 
 C160  C    -0.359828      0.495464      0.220577 
 H161  H    -0.316122     -0.452615      0.325994 
 H162  H    -0.308643      0.452422      0.325730 
 C163  C     0.439814     -0.442695      0.207670 
 H164  H     0.336752     -0.443138      0.301085 
 H165  H     0.478285     -0.391826      0.314145 
 C166  C     0.445748      0.428721      0.204971 
 H167  H     0.498478      0.382644      0.308423 
 H168  H     0.348601      0.425423      0.300696 
 H169  H     0.342494     -0.443450      0.180143 
 H170  H     0.485808     -0.393732      0.192376 
 H171  H    -0.309984     -0.457216      0.204579 
 H172  H    -0.307335      0.447585      0.203751 
 H173  H     0.347553      0.427450      0.178814 
 N174  N    -0.490453      0.493349      0.183701 
 H175  H     0.493870      0.380271      0.185931 
 C176  C    -0.320068     -0.278837      0.048294 
 C177  C    -0.269203     -0.331914      0.005830 
 C178  C    -0.183236     -0.314740     -0.041426 
 C179  C    -0.154797     -0.242144     -0.048962 
 C180  C    -0.208139     -0.188923     -0.007663 
 C181  C    -0.294335     -0.206232      0.039330 
 O182  O    -0.128830     -0.370040     -0.077323 
 C183  C    -0.020012     -0.355628     -0.112756 
 C184  C     0.060097     -0.423540     -0.118063 
 C185  C    -0.007479     -0.488649     -0.157508 
 C186  C    -0.042918     -0.478516     -0.236457 
 O187  O    -0.352277     -0.150740      0.072966 
 C188  C    -0.454797     -0.165986      0.112751 
 C189  C     0.455542     -0.102059      0.114243 
 C190  C    -0.482711     -0.031377      0.144080 
 C191  C     0.421132      0.030079      0.146592 
 H192  H    -0.086941     -0.226820     -0.084352 
 H193  H    -0.385493     -0.294474      0.084968 
 H194  H     0.490688     -0.213102      0.089776 
 H195  H    -0.413295     -0.177858      0.166272 
 H196  H    -0.053190     -0.335993     -0.165123 
 H197  H     0.038890     -0.313365     -0.083395 
 H198  H     0.411265     -0.094003      0.060402 
 H199  H     0.377232     -0.115049      0.144505 
 H200  H     0.145592     -0.411183     -0.142764 
 H201  H     0.095019     -0.438786     -0.064448 
 H202  H     0.054904      0.464033     -0.150188 
 H203  H    -0.092449      0.498819     -0.132426 
 H204  H    -0.434647     -0.039215      0.197302 
 H205  H    -0.409389     -0.016420      0.111180 
 H206  H     0.375129      0.041322      0.093801 
 H207  H     0.345536      0.016823      0.178392 
 H208  H     0.467185      0.079758      0.169215 
 H209  H    -0.104364     -0.431339     -0.246121 
 H210  H     0.042016     -0.470990     -0.263086 
 H211  H    -0.093505      0.474220     -0.261957 
 Cu212  Cu     0.008257      0.008933     -0.434618 
 Cu213  Cu    -0.017833      0.005406      0.428021 
 O214  O    -0.168277      0.069690      0.439957 
 C215  C    -0.170314      0.104001      0.499029 
 O216  O    -0.127943      0.080441     -0.441454 
 O217  O     0.083635      0.095318      0.438152 
 C218  C     0.130340      0.121533      0.497946 
 O219  O     0.127840      0.091188     -0.443814 
 O220  O    -0.117605     -0.083821      0.432379 
 C221  C    -0.139660     -0.107041      0.491244 
 O222  O    -0.115853     -0.072947     -0.449540 
 O223  O     0.138922     -0.056488      0.440612 
 C224  C     0.165980     -0.088176      0.498079 
 O225  O     0.140933     -0.064363     -0.441816 
 Cu226  Cu    -0.491728     -0.490640     -0.430481 
 Cu227  Cu     0.488341     -0.494202      0.432336 
 O228  O     0.389731     -0.404010      0.440392 
 C229  C     0.363374     -0.378031      0.499561 
 O230  O     0.384476     -0.408751     -0.442011 
 O231  O    -0.358263     -0.430641      0.448003 
 C232  C    -0.333030     -0.396370     -0.492992 
 O233  O    -0.355061     -0.419248     -0.434039 
 O234  O     0.339861      0.439638      0.440812 
 C235  C     0.328148      0.411455      0.499280 
 O236  O     0.371056      0.437912     -0.440342 
 O237  O    -0.406269      0.419130      0.438425 
 C238  C    -0.369400      0.393552      0.497762 
 O239  O    -0.372989      0.426012     -0.442441 
 C240  C    -0.322718      0.195599      0.448950 
 C241  C    -0.219894      0.179674      0.498602 
 C242  C    -0.165632      0.232943     -0.452752 
 C243  C    -0.218344      0.302251     -0.453159 
 C244  C    -0.320556      0.318000      0.497342 
 C245  C    -0.375033      0.265037      0.449013 
 O246  O    -0.062146      0.217158     -0.405925 
 C247  C     0.010524      0.276440     -0.371998 
 C248  C     0.125277      0.249635     -0.325238 
 C249  C     0.217553      0.310276     -0.297394 
 C250  C     0.161649      0.365304     -0.247701 
 O251  O    -0.477277      0.283618      0.403006 
 C252  C     0.423461      0.231844      0.385565 
 C253  C     0.427331      0.201354      0.311284 
 C254  C     0.333336      0.139779      0.290840 
 C255  C     0.374185      0.068983      0.325404 
 H256  H    -0.179560      0.345070     -0.416054 
 H257  H    -0.363463      0.154009      0.411152 
 H258  H     0.429982      0.189508      0.424218 
 H259  H     0.332969      0.260188      0.388741 
 H260  H     0.040742      0.310466     -0.412637 
 H261  H    -0.049721      0.308977     -0.339830 
 H262  H     0.406710      0.245067      0.274684 
 H263  H    -0.476294      0.182109      0.305236 
 H264  H     0.094197      0.222400     -0.280497 
 H265  H     0.175841      0.208523     -0.354280 
 H266  H     0.304247      0.286715     -0.270306 
 H267  H     0.247427      0.338105     -0.342214 
 H268  H     0.239486      0.156559      0.304879 
 H269  H     0.321512      0.131504      0.233263 
 H270  H     0.469138      0.052126      0.313442 
 H271  H     0.376665      0.073798      0.382872 
 H272  H     0.308560      0.025107      0.306704 
 H273  H     0.230544      0.407419     -0.228977 
 H274  H     0.077455      0.391870     -0.273910 
 H275  H     0.134715      0.339993     -0.200952 
 N276  N     0.000488     -0.003356     -0.185476 
 C277  C     0.057984     -0.069369     -0.214018 
 C278  C    -0.131171      0.003191     -0.220041 
 C279  C     0.073519      0.058660     -0.204853 
 C280  C    -0.133581      0.002515     -0.301725 
 H281  H    -0.189466     -0.040648     -0.204181 
 H282  H    -0.172540      0.053822     -0.200930 
 C283  C     0.058760     -0.066280     -0.295380 
 H284  H     0.155583     -0.075136     -0.187806 
 H285  H     0.004576     -0.116464     -0.200747 
 C286  C     0.067324      0.062463     -0.286464 
 H287  H     0.036020      0.108412     -0.181700 
 H288  H     0.172739      0.053192     -0.181223 
 H289  H     0.157058     -0.068305     -0.308836 
 H290  H     0.008697     -0.112977     -0.322829 
 H291  H    -0.186114     -0.044703     -0.326441 
 H292  H    -0.183537      0.050450     -0.322973 
 H293  H     0.163471      0.063676     -0.302829 
 N294  N    -0.002942      0.000413     -0.321892 
 H295  H     0.018879      0.111997     -0.304541 
 C296  C     0.117517      0.246345      0.456849 
 C297  C     0.186505      0.195557      0.498260 
 C298  C     0.300908      0.215439     -0.460612 
 C299  C     0.341279      0.287049     -0.459183 
 C300  C     0.272668      0.337541      0.499272 
 C301  C     0.158693      0.318149      0.458625 
 O302  O     0.379739      0.171447     -0.419530 
 C303  C     0.395714      0.097798     -0.442574 
 C304  C    -0.465311      0.077961     -0.425386 
 C305  C    -0.432989      0.002168     -0.452950 
 C306  C    -0.498448     -0.057959     -0.418697 
 O307  O     0.093232      0.368987      0.419364 
 C308  C    -0.035601      0.383056      0.432260 
 C309  C    -0.043604      0.446155      0.485295 
 C310  C    -0.037000     -0.479066      0.454782 
 C311  C     0.091092     -0.461566      0.430408 
 H312  H     0.430474      0.301480     -0.427407 
 H313  H     0.029853      0.231154      0.424058 
 H314  H    -0.090753      0.394868      0.381733 
 H315  H    -0.076578      0.334411      0.451046 
 H316  H     0.335947      0.063561     -0.414628 
 H317  H     0.366301      0.089907     -0.499396 
 H318  H    -0.134054      0.443092     -0.492201 
 H319  H     0.031217      0.441358     -0.470125 
 H320  H    -0.407147      0.117378     -0.448206 
 H321  H    -0.437662      0.082570     -0.368197 
 H322  H    -0.458299     -0.001830      0.489625 
 H323  H    -0.329553     -0.005659     -0.444182 
 H324  H    -0.112832     -0.474256      0.410832 
 H325  H    -0.058411     -0.438298      0.495098 
 H326  H     0.167495     -0.465913      0.473924 
 H327  H     0.114081     -0.498279      0.387300 
 H328  H     0.093068     -0.406644      0.411892 
 H329  H     0.397826     -0.052492     -0.426763 
 H330  H    -0.474882     -0.110782     -0.441630 
 H331  H    -0.469385     -0.057649     -0.361722 
 C332  C     0.160907     -0.213829     -0.466611 
 C333  C     0.218442     -0.163085      0.495632 
 C334  C     0.321496     -0.181465      0.458759 
 C335  C     0.368035     -0.252385      0.461235 
 C336  C     0.311010     -0.302977      0.499615 
 C337  C     0.207285     -0.284540     -0.464088 
 O338  O     0.371923     -0.127262      0.424321 
 C339  C     0.474495     -0.139606      0.382394 
 C340  C     0.423357     -0.159066      0.306127 
 C341  C     0.350242     -0.230487      0.294828 
 C342  C     0.303808     -0.249926      0.217704 
 O343  O     0.155935     -0.337792     -0.428989 
 C344  C     0.042412     -0.325674     -0.395963 
 C345  C     0.067866     -0.280914     -0.327185 
 C346  C     0.178448     -0.308862     -0.276823 
 C347  C     0.208337     -0.260558     -0.210370 
 H348  H     0.449631     -0.268506      0.434316 
 H349  H     0.078702     -0.197975     -0.440151 
 H350  H    -0.029712     -0.300313     -0.433058 
 H351  H     0.005479     -0.378978     -0.385887 
 H352  H    -0.471556     -0.088973      0.385085 
 H353  H    -0.458967     -0.180485      0.404880 
 H354  H     0.087391     -0.224692     -0.337496 
 H355  H    -0.019050     -0.279738     -0.300865 
 H356  H     0.361602     -0.115164      0.285372 
 H357  H    -0.496339     -0.161233      0.274593 
 H358  H     0.411267     -0.274163      0.316459 
 H359  H     0.267900     -0.227949      0.324831 
 H360  H     0.157263     -0.363721     -0.262439 
 H361  H     0.263714     -0.313035     -0.304423 
 H362  H     0.125967     -0.253954     -0.180860 
 H363  H     0.285766     -0.283871     -0.175398 
 H364  H     0.238138     -0.206644     -0.223011 
 H365  H     0.252154     -0.301198      0.212901 
 H366  H     0.239537     -0.208511      0.194464 
 H367  H     0.383124     -0.256086      0.185865 
 N368  N    -0.482651      0.499526     -0.180419 
 C369  C     0.398797     -0.466076     -0.211270 
 C370  C    -0.375456     -0.459866     -0.201868 
 C371  C    -0.476873      0.425460     -0.211127 
 C372  C    -0.385031     -0.457133     -0.283800 
 H373  H    -0.374560     -0.405113     -0.177387 
 H374  H    -0.286612     -0.486140     -0.180802 
 C375  C     0.388905     -0.470169     -0.293406 
 H376  H     0.316433     -0.491575     -0.192430 
 H377  H     0.398965     -0.409419     -0.191691 
 C378  C    -0.476196      0.425853     -0.292604 
 H379  H    -0.391309      0.398294     -0.186526 
 H380  H     0.440540      0.395460     -0.198093 
 H381  H     0.308349      0.495776     -0.316023 
 H382  H     0.371309     -0.416369     -0.314332 
 H383  H    -0.397732     -0.401465     -0.300491 
 H384  H    -0.297202     -0.477389     -0.303352 
 H385  H     0.448714      0.390810     -0.319835 
 N386  N    -0.493315      0.499749     -0.317502 
 H387  H    -0.385409      0.404611     -0.307590 
 C388  C    -0.224790     -0.304035      0.445505 
 C389  C    -0.281768     -0.321383     -0.495105 
 C390  C    -0.294659     -0.268830     -0.441370 
 C391  C    -0.247506     -0.199333     -0.447361 
 C392  C    -0.191337     -0.181938      0.493076 
 C393  C    -0.178262     -0.234524      0.439511 
 O394  O    -0.349167     -0.286916     -0.383201 
 C395  C    -0.430044     -0.235373     -0.352176 
 C396  C    -0.439481     -0.253384     -0.276366 
 C397  C    -0.310470     -0.265177     -0.232403 
 C398  C    -0.218404     -0.201855     -0.230598 
 O399  O    -0.122655     -0.216925      0.381661 
 C400  C    -0.025117     -0.263366      0.359005 
 C401  C    -0.071521     -0.317666      0.299416 
 C402  C    -0.171820     -0.290247      0.241801 
 C403  C    -0.306280     -0.284545      0.263592 
 H404  H    -0.252099     -0.158782     -0.404808 
 H405  H    -0.216941     -0.344348      0.403250 
 H406  H     0.047280     -0.228217      0.341938 
 H407  H     0.021399     -0.291225      0.404727 
 H408  H    -0.394885     -0.180181     -0.353286 
 H409  H     0.475842     -0.237640     -0.383351 
 H410  H     0.012267     -0.336222      0.274676 
 H411  H    -0.107871     -0.366286      0.320902 
 H412  H    -0.490714     -0.209223     -0.251829 
 H413  H    -0.498955     -0.301463     -0.275370 
 H414  H    -0.326931     -0.276419     -0.178247 
 H415  H    -0.264711     -0.313707     -0.252868 
 H416  H    -0.142422     -0.237855      0.224526 
 H417  H    -0.174912     -0.327195      0.195228 
 H418  H    -0.334450     -0.334851      0.285204 
 H419  H    -0.314654     -0.241147      0.303487 
 H420  H    -0.376137     -0.274085      0.218297 
 H421  H    -0.257366     -0.153061     -0.206973 
 H422  H    -0.128012     -0.213839     -0.199220 
 H423  H    -0.196575     -0.189760     -0.283455 
loop_  
_geom_bond_atom_site_label_1  
_geom_bond_atom_site_label_2  
Cu0   Cu1 
Cu0   O4 
Cu0   O7 
Cu0   O10 
Cu0   O13 
Cu0   N82 
Cu1   O2 
Cu1   O5 
Cu1   O8 
Cu1   O11 
Cu1   N276 
O2   C3 
C3   O4 
C3   C32 
O5   C6 
C6   O7 
C6   C88 
O8   C9 
C9   O10 
C9   C180 
O11   C12 
C12   O13 
C12   C121 
Cu14   Cu15 
Cu14   O18 
Cu14   O21 
Cu14   O24 
Cu14   O27 
Cu14   N174 
Cu15   O16 
Cu15   O19 
Cu15   O22 
Cu15   O25 
Cu15   N368 
O16   C17 
C17   O18 
C17   C124 
O19   C20 
C20   O21 
C20   C177 
O22   C23 
C23   O24 
C23   C85 
O25   C26 
C26   O27 
C26   C29 
C28   C29 
C28   C33 
C28   H45 
C29   C30 
C30   C31 
C30   O34 
C31   C32 
C31   H44 
C32   C33 
C33   O39 
O34   C35 
C35   C36 
C35   H48 
C35   H49 
C36   C37 
C36   H52 
C36   H53 
C37   C38 
C37   H54 
C37   H55 
C38   H61 
C38   H62 
C38   H63 
O39   C40 
C40   C41 
C40   H46 
C40   H47 
C41   C42 
C41   H50 
C41   H51 
C42   C43 
C42   H56 
C42   H57 
C43   H58 
C43   H59 
C43   H60 
N64   C65 
N64   C66 
N64   C67 
N64   Cu213 
C65   C71 
C65   H72 
C65   H73 
C66   C68 
C66   H69 
C66   H70 
C67   C74 
C67   H75 
C67   H76 
C68   H79 
C68   H80 
C68   N82 
C71   H77 
C71   H78 
C71   N82 
C74   H81 
C74   N82 
C74   H83 
C84   C85 
C84   C89 
C84   H101 
C85   C86 
C86   C87 
C86   O90 
C87   C88 
C87   H100 
C88   C89 
C89   O95 
O90   C91 
C91   C92 
C91   H104 
C91   H105 
C92   C93 
C92   H108 
C92   H109 
C93   C94 
C93   H110 
C93   H111 
C94   H117 
C94   H118 
C94   H119 
O95   C96 
C96   C97 
C96   H102 
C96   H103 
C97   C98 
C97   H106 
C97   H107 
C98   C99 
C98   H112 
C98   H113 
C99   H114 
C99   H115 
C99   H116 
C120   C121 
C120   C125 
C120   H137 
C121   C122 
C122   C123 
C122   O126 
C123   C124 
C123   H136 
C124   C125 
C125   O131 
O126   C127 
C127   C128 
C127   H140 
C127   H141 
C128   C129 
C128   H144 
C128   H145 
C129   C130 
C129   H146 
C129   H147 
C130   H153 
C130   H154 
C130   H155 
O131   C132 
C132   C133 
C132   H138 
C132   H139 
C133   C134 
C133   H142 
C133   H143 
C134   C135 
C134   H148 
C134   H149 
C135   H150 
C135   H151 
C135   H152 
N156   C157 
N156   C158 
N156   C159 
N156   Cu227 
C157   C163 
C157   H164 
C157   H165 
C158   C160 
C158   H161 
C158   H162 
C159   C166 
C159   H167 
C159   H168 
C160   H171 
C160   H172 
C160   N174 
C163   H169 
C163   H170 
C163   N174 
C166   H173 
C166   N174 
C166   H175 
C176   C177 
C176   C181 
C176   H193 
C177   C178 
C178   C179 
C178   O182 
C179   C180 
C179   H192 
C180   C181 
C181   O187 
O182   C183 
C183   C184 
C183   H196 
C183   H197 
C184   C185 
C184   H200 
C184   H201 
C185   C186 
C185   H202 
C185   H203 
C186   H209 
C186   H210 
C186   H211 
O187   C188 
C188   C189 
C188   H194 
C188   H195 
C189   C190 
C189   H198 
C189   H199 
C190   C191 
C190   H204 
C190   H205 
C191   H206 
C191   H207 
C191   H208 
Cu212   Cu213 
Cu212   O216 
Cu212   O219 
Cu212   O222 
Cu212   O225 
Cu212   N294 
Cu213   O214 
Cu213   O217 
Cu213   O220 
Cu213   O223 
O214   C215 
C215   O216 
C215   C241 
O217   C218 
C218   O219 
C218   C297 
O220   C221 
C221   O222 
C221   C392 
O223   C224 
C224   O225 
C224   C333 
Cu226   Cu227 
Cu226   O230 
Cu226   O233 
Cu226   O236 
Cu226   O239 
Cu226   N386 
Cu227   O228 
Cu227   O231 
Cu227   O234 
Cu227   O237 
O228   C229 
C229   O230 
C229   C336 
O231   C232 
C232   O233 
C232   C389 
O234   C235 
C235   O236 
C235   C300 
O237   C238 
C238   O239 
C238   C244 
C240   C241 
C240   C245 
C240   H257 
C241   C242 
C242   C243 
C242   O246 
C243   C244 
C243   H256 
C244   C245 
C245   O251 
O246   C247 
C247   C248 
C247   H260 
C247   H261 
C248   C249 
C248   H264 
C248   H265 
C249   C250 
C249   H266 
C249   H267 
C250   H273 
C250   H274 
C250   H275 
O251   C252 
C252   C253 
C252   H258 
C252   H259 
C253   C254 
C253   H262 
C253   H263 
C254   C255 
C254   H268 
C254   H269 
C255   H270 
C255   H271 
C255   H272 
N276   C277 
N276   C278 
N276   C279 
C277   C283 
C277   H284 
C277   H285 
C278   C280 
C278   H281 
C278   H282 
C279   C286 
C279   H287 
C279   H288 
C280   H291 
C280   H292 
C280   N294 
C283   H289 
C283   H290 
C283   N294 
C286   H293 
C286   N294 
C286   H295 
C296   C297 
C296   C301 
C296   H313 
C297   C298 
C298   C299 
C298   O302 
C299   C300 
C299   H312 
C300   C301 
C301   O307 
O302   C303 
C303   C304 
C303   H316 
C303   H317 
C304   C305 
C304   H320 
C304   H321 
C305   C306 
C305   H322 
C305   H323 
C306   H329 
C306   H330 
C306   H331 
O307   C308 
C308   C309 
C308   H314 
C308   H315 
C309   C310 
C309   H318 
C309   H319 
C310   C311 
C310   H324 
C310   H325 
C311   H326 
C311   H327 
C311   H328 
C332   C333 
C332   C337 
C332   H349 
C333   C334 
C334   C335 
C334   O338 
C335   C336 
C335   H348 
C336   C337 
C337   O343 
O338   C339 
C339   C340 
C339   H352 
C339   H353 
C340   C341 
C340   H356 
C340   H357 
C341   C342 
C341   H358 
C341   H359 
C342   H365 
C342   H366 
C342   H367 
O343   C344 
C344   C345 
C344   H350 
C344   H351 
C345   C346 
C345   H354 
C345   H355 
C346   C347 
C346   H360 
C346   H361 
C347   H362 
C347   H363 
C347   H364 
N368   C369 
N368   C370 
N368   C371 
C369   C375 
C369   H376 
C369   H377 
C370   C372 
C370   H373 
C370   H374 
C371   C378 
C371   H379 
C371   H380 
C372   H383 
C372   H384 
C372   N386 
C375   H381 
C375   H382 
C375   N386 
C378   H385 
C378   N386 
C378   H387 
C388   C389 
C388   C393 
C388   H405 
C389   C390 
C390   C391 
C390   O394 
C391   C392 
C391   H404 
C392   C393 
C393   O399 
O394   C395 
C395   C396 
C395   H408 
C395   H409 
C396   C397 
C396   H412 
C396   H413 
C397   C398 
C397   H414 
C397   H415 
C398   H421 
C398   H422 
C398   H423 
O399   C400 
C400   C401 
C400   H406 
C400   H407 
C401   C402 
C401   H410 
C401   H411 
C402   C403 
C402   H416 
C402   H417 
C403   H418 
C403   H419 
C403   H420 
  
#END  
