data_
_symmetry_cell_setting           triclinic 
_symmetry_space_group_name_H-M   'P 1' 
_symmetry_Int_Tables_number      1 
loop_ 
_symmetry_equiv_pos_site_id 
_symmetry_equiv_pos_as_xyz 
1 x,y,z 
_cell_length_a             15.010038        
_cell_length_b             15.821814        
_cell_length_c             18.956048        
_cell_angle_alpha          90.877433        
_cell_angle_beta           88.640014        
_cell_angle_gamma          89.992555        
loop_  
_atom_site_label   
_atom_site_type_symbol  
_atom_site_fract_x  
_atom_site_fract_y  
_atom_site_fract_z 
 Cu0  Cu    -0.029615     -0.013638      0.069689 
 Cu1  Cu    -0.017134     -0.016644     -0.064643 
 O2  O    -0.122878      0.066093     -0.060859 
 C3  C    -0.137087      0.100037     -0.001477 
 O4  O    -0.101227      0.083363      0.054941 
 O5  O     0.062655      0.082770     -0.053993 
 C6  C     0.100489      0.095171      0.005974 
 O7  O     0.079641      0.054776      0.061921 
 O8  O    -0.106305     -0.120910     -0.058685 
 C9  C    -0.152060     -0.125101     -0.000030 
 O10  O    -0.143893     -0.080047      0.057584 
 O11  O     0.091820     -0.083052     -0.039802 
 C12  C     0.092488     -0.130831      0.013196 
 O13  O     0.042568     -0.114777      0.070385 
 Cu14  Cu     0.484290      0.492012      0.062888 
 Cu15  Cu     0.480668      0.485329     -0.074770 
 O16  O     0.400437     -0.417647     -0.060959 
 C17  C     0.359989     -0.403711     -0.001086 
 O18  O     0.375515     -0.441775      0.056948 
 O19  O    -0.411460     -0.439565     -0.063228 
 C20  C    -0.403160     -0.397779     -0.006126 
 O21  O    -0.444271     -0.412833      0.050644 
 O22  O     0.379318      0.404008     -0.062722 
 C23  C     0.362622      0.368248     -0.003984 
 O24  O     0.398499      0.384721      0.055924 
 O25  O    -0.431150      0.391145     -0.069319 
 C26  C    -0.390879      0.379340     -0.012549 
 O27  O    -0.407301      0.418879      0.047318 
 C28  C    -0.326981      0.246305     -0.067466 
 C29  C    -0.318076      0.311871     -0.016776 
 C30  C    -0.251811      0.307610      0.033826 
 C31  C    -0.201849      0.235816      0.038749 
 C32  C    -0.207944      0.166208     -0.010090 
 C33  C    -0.274493      0.175271     -0.061698 
 O34  O    -0.230490      0.374853      0.075041 
 C35  C    -0.194430      0.368827      0.144725 
 C36  C    -0.100256      0.416026      0.148164 
 C37  C    -0.030635      0.378731      0.094283 
 C38  C     0.058444      0.421988      0.086799 
 O39  O    -0.279135      0.106031     -0.109443 
 C40  C    -0.352038      0.100090     -0.160566 
 C41  C    -0.319180      0.153249     -0.227838 
 C42  C    -0.388875      0.139302     -0.288017 
 C43  C    -0.347936      0.171700     -0.355880 
 H44  H    -0.149399      0.243370      0.079218 
 H45  H    -0.376902      0.253134     -0.106810 
 H46  H    -0.349558      0.031962     -0.173433 
 H47  H    -0.420724      0.118207     -0.133846 
 H48  H    -0.245207      0.390592      0.184540 
 H49  H    -0.180963      0.305346      0.164021 
 H50  H    -0.325643      0.223964     -0.217568 
 H51  H    -0.251349      0.139834     -0.249011 
 H52  H    -0.105143      0.485952      0.143953 
 H53  H    -0.069011      0.403849      0.200005 
 H54  H    -0.019271      0.311255      0.106434 
 H55  H    -0.058358      0.370143      0.043022 
 H56  H    -0.402507      0.070185     -0.294714 
 H57  H    -0.453397      0.170257     -0.273314 
 H58  H    -0.360275      0.237179     -0.373121 
 H59  H    -0.274981      0.155543     -0.361506 
 H60  H    -0.383734      0.137760     -0.396807 
 H61  H     0.106294      0.378844      0.062909 
 H62  H     0.057193      0.474836      0.047379 
 H63  H     0.092853      0.444241      0.133172 
 N64  N    -0.017924      0.030529      0.320469 
 C65  C    -0.089226     -0.029744      0.294855 
 C66  C    -0.036493      0.113829      0.294056 
 C67  C     0.066534      0.002721      0.289776 
 C68  C    -0.046158      0.112454      0.213308 
 H69  H    -0.093317      0.138933      0.324007 
 H70  H     0.024826      0.152395      0.307880 
 C71  C    -0.099419     -0.028161      0.213048 
 H72  H    -0.079954     -0.091375      0.314095 
 H73  H    -0.154101     -0.011093      0.321372 
 C74  C     0.059904     -0.003413      0.205730 
 H75  H     0.129105      0.037585      0.307182 
 H76  H     0.072634     -0.063320      0.310910 
 H77  H    -0.093491     -0.089152      0.188283 
 H78  H    -0.164961     -0.003541      0.201786 
 H79  H    -0.115335      0.130984      0.203337 
 H80  H    -0.004617      0.157105      0.183248 
 H81  H     0.071810     -0.074714      0.188090 
 N82  N    -0.031935      0.026658      0.181149 
 H83  H     0.109157      0.035427      0.175793 
 C84  C     0.174202      0.216444     -0.055713 
 C85  C     0.174615      0.162607      0.003366 
 C86  C     0.233376      0.180468      0.059435 
 C87  C     0.291091      0.249440      0.050627 
 C88  C     0.295827      0.297677     -0.008596 
 C89  C     0.234353      0.282791     -0.061814 
 O90  O     0.237745      0.129291      0.118056 
 C91  C     0.319880      0.127099      0.152613 
 C92  C     0.324926      0.044084      0.189577 
 C93  C     0.331402     -0.028264      0.132155 
 C94  C     0.363727     -0.110203      0.163207 
 O95  O     0.243263      0.326430     -0.121492 
 C96  C     0.190388      0.401218     -0.134670 
 C97  C     0.190165      0.399584     -0.215979 
 C98  C     0.146827      0.316286     -0.248795 
 C99  C     0.208401      0.282833     -0.310615 
 H100  H     0.340779      0.266071      0.094640 
 H101  H     0.122882      0.202026     -0.094260 
 H102  H     0.125391      0.389835     -0.112705 
 H103  H     0.216714      0.462454     -0.112409 
 H104  H     0.367892      0.130452      0.108952 
 H105  H     0.318653      0.182441      0.186833 
 H106  H     0.157185      0.455958     -0.232983 
 H107  H     0.260279      0.401128     -0.237348 
 H108  H     0.383612      0.046843      0.222135 
 H109  H     0.264871      0.032313      0.222949 
 H110  H     0.267197     -0.034695      0.109579 
 H111  H     0.373119     -0.006975      0.088801 
 H112  H     0.138712      0.270082     -0.206897 
 H113  H     0.083376      0.328721     -0.274063 
 H114  H     0.273325      0.260691     -0.295142 
 H115  H     0.179441      0.228735     -0.341678 
 H116  H     0.216316      0.333487     -0.349695 
 H117  H     0.362664     -0.160060      0.120220 
 H118  H     0.431700     -0.108127      0.183256 
 H119  H     0.314789     -0.130426      0.200110 
 C120  C     0.224901     -0.332555      0.059574 
 C121  C     0.293517     -0.328207      0.005669 
 C122  C     0.279444     -0.273099     -0.050784 
 C123  C     0.209100     -0.218225     -0.048040 
 C124  C     0.151873     -0.210797      0.011429 
 C125  C     0.152990     -0.271382      0.065963 
 O126  O     0.339330     -0.264584     -0.107881 
 C127  C     0.426762     -0.226816     -0.098028 
 C128  C     0.431197     -0.139373     -0.060136 
 C129  C     0.412887     -0.063539     -0.106514 
 C130  C     0.388677      0.015516     -0.068691 
 O131  O     0.087492     -0.274982      0.118489 
 C132  C     0.056464     -0.355682      0.143566 
 C133  C    -0.029650     -0.336617      0.185014 
 C134  C    -0.109877     -0.310367      0.139283 
 C135  C    -0.194880     -0.288900      0.183912 
 H136  H     0.206831     -0.169695     -0.087880 
 H137  H     0.222663     -0.387176      0.097735 
 H138  H     0.050527     -0.398851      0.100280 
 H139  H     0.105991     -0.382843      0.180346 
 H140  H     0.457593     -0.270757     -0.065091 
 H141  H     0.467019     -0.224215     -0.144702 
 H142  H    -0.050817     -0.394017      0.215076 
 H143  H    -0.023442     -0.290370      0.226426 
 H144  H     0.377658     -0.142418     -0.022154 
 H145  H     0.494380     -0.133149     -0.032994 
 H146  H     0.471528     -0.050528     -0.141103 
 H147  H     0.360198     -0.081669     -0.143921 
 H148  H    -0.090733     -0.255562      0.106613 
 H149  H    -0.129011     -0.363690      0.103605 
 H150  H    -0.245294     -0.266704      0.144203 
 H151  H    -0.217427     -0.348342      0.208427 
 H152  H    -0.186553     -0.240689      0.221377 
 H153  H     0.432780      0.020015     -0.020170 
 H154  H     0.400879      0.069261     -0.103284 
 H155  H     0.313909      0.018045     -0.048647 
 N156  N    -0.485908     -0.480383      0.312258 
 C157  C     0.473064     -0.405143      0.284654 
 C158  C    -0.400224     -0.498238      0.279135 
 C159  C     0.445729      0.449573      0.298635 
 C160  C    -0.409267      0.482631      0.197945 
 H161  H    -0.357268     -0.449384      0.297685 
 H162  H    -0.369970      0.443502      0.299195 
 C163  C     0.474868     -0.410192      0.201448 
 H164  H     0.403961     -0.392310      0.302725 
 H165  H    -0.485385     -0.345459      0.299043 
 C166  C     0.429602      0.445352      0.217195 
 H167  H     0.466517      0.388842      0.322800 
 H168  H     0.384044      0.459387      0.324597 
 H169  H     0.410349     -0.393069      0.178043 
 H170  H    -0.468816     -0.368215      0.181588 
 H171  H    -0.361563     -0.481245      0.161916 
 H172  H    -0.392984      0.419338      0.184581 
 H173  H     0.361649      0.470954      0.206848 
 N174  N     0.497180     -0.497917      0.178735 
 H175  H     0.434562      0.375735      0.200333 
 C176  C    -0.197102     -0.268154     -0.032076 
 C177  C    -0.221066     -0.192398      0.001139 
 C178  C    -0.307213     -0.181248      0.030120 
 C179  C    -0.364332     -0.251163      0.028819 
 C180  C    -0.341043     -0.326775     -0.007921 
 C181  C    -0.258905     -0.333651     -0.041638 
 O182  O    -0.346137     -0.102351      0.051416 
 C183  C    -0.390854     -0.106674      0.120661 
 C184  C    -0.413808     -0.013943      0.142642 
 C185  C    -0.337287      0.050105      0.136359 
 C186  C    -0.363238      0.138305      0.163809 
 O187  O    -0.239370     -0.410854     -0.075113 
 C188  C    -0.149809     -0.412907     -0.102266 
 C189  C    -0.128984     -0.492674     -0.147647 
 C190  C    -0.137060      0.421704     -0.110541 
 C191  C    -0.113150      0.344221     -0.158830 
 H192  H    -0.431332     -0.238684      0.051653 
 H193  H    -0.128950     -0.273482     -0.050668 
 H194  H    -0.136988     -0.364090     -0.140580 
 H195  H    -0.098827     -0.405126     -0.055729 
 H196  H    -0.442806     -0.155323      0.135756 
 H197  H    -0.335136     -0.124896      0.154397 
 H198  H    -0.170435     -0.493476     -0.195033 
 H199  H    -0.061529     -0.477208     -0.167960 
 H200  H    -0.473461      0.006516      0.112208 
 H201  H    -0.441513     -0.014423      0.198029 
 H202  H    -0.279880      0.027643      0.164071 
 H203  H    -0.316756      0.056611      0.079487 
 H204  H    -0.092916      0.414719     -0.063608 
 H205  H    -0.204859      0.412116     -0.089695 
 H206  H    -0.041361      0.355122     -0.181444 
 H207  H    -0.111610      0.288597     -0.123724 
 H208  H    -0.155443      0.326863     -0.202733 
 H209  H    -0.419800      0.164880      0.131728 
 H210  H    -0.383640      0.138722      0.223245 
 H211  H    -0.304444      0.181071      0.162492 
 Cu212  Cu     0.016390      0.015642     -0.422397 
 Cu213  Cu     0.009899      0.008322      0.439426 
 O214  O    -0.103391      0.069740      0.455940 
 C215  C    -0.111843      0.115611     -0.486569 
 O216  O    -0.064810      0.112743     -0.432250 
 O217  O     0.072831      0.118821      0.448259 
 C218  C     0.121519      0.133412     -0.499844 
 O219  O     0.116268      0.097800     -0.440240 
 O220  O    -0.052079     -0.103118      0.439469 
 C221  C    -0.091675     -0.113240      0.497844 
 O222  O    -0.080662     -0.064535     -0.445275 
 O223  O     0.123379     -0.055884      0.445407 
 C224  C     0.140296     -0.099980     -0.499400 
 O225  O     0.105422     -0.084405     -0.438673 
 Cu226  Cu    -0.483588     -0.488373     -0.435596 
 Cu227  Cu    -0.472500     -0.490050      0.421163 
 O228  O     0.446448     -0.392235      0.433630 
 C229  C     0.411439     -0.363654      0.490260 
 O230  O     0.430805     -0.392508     -0.448447 
 O231  O    -0.365656     -0.414947      0.437857 
 C232  C    -0.346740     -0.384010      0.498286 
 O233  O    -0.385709     -0.399754     -0.441913 
 O234  O     0.413811      0.430735      0.431604 
 C235  C     0.394048      0.393661      0.488103 
 O236  O     0.423292      0.412580     -0.451254 
 O237  O    -0.392564      0.404032      0.445522 
 C238  C    -0.360955      0.389714     -0.493557 
 O239  O    -0.384645      0.424027     -0.435981 
 C240  C    -0.312807      0.245978      0.470764 
 C241  C    -0.292071      0.322822     -0.494791 
 C242  C    -0.210766      0.335801     -0.460590 
 C243  C    -0.154901      0.263083     -0.454342 
 C244  C    -0.176558      0.188603     -0.486742 
 C245  C    -0.254024      0.179820      0.475453 
 O246  O    -0.187877      0.416742     -0.437565 
 C247  C    -0.110830      0.424902     -0.400411 
 C248  C    -0.108467     -0.477326     -0.378341 
 C249  C    -0.197752     -0.451116     -0.340586 
 C250  C    -0.200737     -0.363161     -0.305232 
 O251  O    -0.268005      0.105565      0.437227 
 C252  C    -0.330978      0.100225      0.381536 
 C253  C    -0.425441      0.090999      0.414071 
 C254  C     0.499888      0.093635      0.362494 
 C255  C     0.481550      0.181847      0.338482 
 H256  H    -0.091071      0.270253     -0.428588 
 H257  H    -0.372512      0.244508      0.439478 
 H258  H    -0.327120      0.157355      0.350128 
 H259  H    -0.299476      0.045338      0.346344 
 H260  H    -0.109200      0.385720     -0.354397 
 H261  H    -0.051971      0.410784     -0.433200 
 H262  H    -0.429385      0.029783      0.441201 
 H263  H    -0.440751      0.139393      0.457864 
 H264  H    -0.056783     -0.470042     -0.337224 
 H265  H    -0.089871     -0.433983     -0.420824 
 H266  H    -0.258960     -0.457609     -0.372926 
 H267  H    -0.209118      0.497846     -0.302873 
 H268  H    -0.486915      0.053477      0.313577 
 H269  H     0.437127      0.062325      0.385864 
 H270  H     0.427990      0.182386      0.302273 
 H271  H     0.469980      0.225845      0.379935 
 H272  H    -0.461221      0.211649      0.308877 
 H273  H    -0.133008     -0.353878     -0.280106 
 H274  H    -0.207483     -0.311695     -0.345151 
 H275  H    -0.256475     -0.352355     -0.269398 
 N276  N    -0.009079      0.009561     -0.172224 
 C277  C    -0.048226     -0.066143     -0.207456 
 C278  C    -0.049976      0.087507     -0.200137 
 C279  C     0.087462      0.010331     -0.193566 
 C280  C    -0.052829      0.081822     -0.282296 
 H281  H    -0.122465      0.094810     -0.180689 
 H282  H    -0.013408      0.145600     -0.177549 
 C283  C    -0.029593     -0.067629     -0.286355 
 H284  H    -0.029420     -0.127402     -0.187919 
 H285  H    -0.120287     -0.056107     -0.192342 
 C286  C     0.098099      0.028183     -0.275963 
 H287  H     0.122443      0.062500     -0.166123 
 H288  H     0.120210     -0.049450     -0.180262 
 H289  H     0.027565     -0.115828     -0.299802 
 H290  H    -0.092157     -0.088669     -0.313164 
 H291  H    -0.122003      0.064950     -0.299981 
 H292  H    -0.042389      0.145972     -0.304926 
 H293  H     0.138512     -0.018574     -0.301469 
 N294  N     0.008411      0.017476     -0.310557 
 H295  H     0.129879      0.089094     -0.286756 
 C296  C     0.336101      0.255584     -0.471488 
 C297  C     0.324592      0.323529      0.484287 
 C298  C     0.246730      0.327063      0.440550 
 C299  C     0.182963      0.256186      0.442426 
 C300  C     0.194344      0.196412      0.492925 
 C301  C     0.270437      0.194114     -0.466052 
 O302  O     0.241032      0.387576      0.391199 
 C303  C     0.158800      0.395617      0.355473 
 C304  C     0.151923      0.482354      0.321778 
 C305  C     0.176093     -0.442442      0.369670 
 C306  C     0.168787     -0.357957      0.329902 
 O307  O     0.288894      0.134855     -0.416222 
 C308  C     0.301141      0.052268     -0.445386 
 C309  C     0.374496      0.005098     -0.407831 
 C310  C     0.354091     -0.016857     -0.329772 
 C311  C     0.337799      0.061956     -0.279895 
 H312  H     0.120843      0.261022      0.417776 
 H313  H     0.395423      0.259179     -0.436235 
 H314  H     0.233403      0.018370     -0.434393 
 H315  H     0.318839      0.046999      0.495264 
 H316  H     0.143973      0.343765      0.311680 
 H317  H     0.105433      0.391208      0.394076 
 H318  H     0.379509     -0.056943     -0.436013 
 H319  H     0.438949      0.038596     -0.416660 
 H320  H     0.202454      0.481666      0.276510 
 H321  H     0.094866     -0.497469      0.295474 
 H322  H     0.136733     -0.439549      0.422962 
 H323  H     0.248561     -0.443602      0.377081 
 H324  H     0.296151     -0.063682     -0.335767 
 H325  H     0.411402     -0.050617     -0.306810 
 H326  H     0.309797      0.034228     -0.232044 
 H327  H     0.396084      0.094915     -0.264168 
 H328  H     0.283698      0.103258     -0.302076 
 H329  H     0.210671     -0.356360      0.282582 
 H330  H     0.098516     -0.347714      0.317037 
 H331  H     0.175378     -0.302400      0.362993 
 C332  C     0.264472     -0.176888      0.441316 
 C333  C     0.202371     -0.174111      0.496544 
 C334  C     0.206423     -0.237405     -0.447428 
 C335  C     0.273409     -0.297663     -0.454289 
 C336  C     0.329532     -0.303417      0.488736 
 C337  C     0.329939     -0.242015      0.437090 
 O338  O     0.151828     -0.241530     -0.388410 
 C339  C     0.159386     -0.305660     -0.338633 
 C340  C     0.088611     -0.281296     -0.282212 
 C341  C     0.085861     -0.347341     -0.219737 
 C342  C     0.172303     -0.348009     -0.178599 
 O343  O     0.399532     -0.244331      0.392491 
 C344  C     0.427889     -0.168182      0.362560 
 C345  C    -0.480665     -0.169952      0.327094 
 C346  C    -0.405896     -0.197334      0.373449 
 C347  C    -0.317530     -0.218316      0.330484 
 H348  H     0.290768     -0.336725     -0.410655 
 H349  H     0.255275     -0.136197      0.395488 
 H350  H     0.375657     -0.148479      0.326181 
 H351  H     0.423974     -0.119254      0.400572 
 H352  H     0.144486     -0.365762     -0.358239 
 H353  H     0.220269     -0.298078     -0.308826 
 H354  H    -0.489849     -0.217121      0.283352 
 H355  H    -0.467556     -0.110159      0.294127 
 H356  H     0.102514     -0.218842     -0.260036 
 H357  H     0.021240     -0.274260     -0.299717 
 H358  H     0.032022     -0.328251     -0.180642 
 H359  H     0.068576     -0.409865     -0.242008 
 H360  H    -0.393147     -0.148513      0.413221 
 H361  H    -0.421699     -0.256630      0.408685 
 H362  H    -0.299521     -0.163903      0.295766 
 H363  H    -0.264356     -0.235340      0.366487 
 H364  H    -0.328450     -0.274111      0.298539 
 H365  H     0.166350     -0.380333     -0.131223 
 H366  H     0.232055     -0.374954     -0.204216 
 H367  H     0.196211     -0.284595     -0.163025 
 N368  N     0.491140     -0.497440     -0.186885 
 C369  C     0.398974     -0.469402     -0.214560 
 C370  C    -0.438028     -0.436553     -0.208042 
 C371  C    -0.492856      0.417997     -0.225827 
 C372  C    -0.448863     -0.419306     -0.288909 
 H373  H    -0.441336     -0.374322     -0.178705 
 H374  H    -0.376978     -0.472859     -0.199968 
 C375  C     0.403573     -0.463011     -0.297020 
 H376  H     0.340882      0.488972     -0.196500 
 H377  H     0.385048     -0.407059     -0.189181 
 C378  C    -0.486411      0.430903     -0.304636 
 H379  H    -0.435543      0.385705     -0.205150 
 H380  H     0.450518      0.371692     -0.215610 
 H381  H     0.363130      0.488128     -0.322030 
 H382  H     0.379354     -0.398510     -0.311824 
 H383  H    -0.476016     -0.359589     -0.299042 
 H384  H    -0.381976     -0.422274     -0.314869 
 H385  H     0.462971      0.390286     -0.331250 
 N386  N     0.493570     -0.481129     -0.323392 
 H387  H    -0.419905      0.412696     -0.323149 
 C388  C    -0.134253     -0.254498      0.460470 
 C389  C    -0.153501     -0.186893     -0.492226 
 C390  C    -0.229185     -0.182246     -0.448410 
 C391  C    -0.289110     -0.253683     -0.447935 
 C392  C    -0.271725     -0.320512     -0.498393 
 C393  C    -0.193092     -0.322814      0.456064 
 O394  O    -0.245250     -0.111074     -0.408222 
 C395  C    -0.335497     -0.091150     -0.382948 
 C396  C    -0.356094     -0.131188     -0.309174 
 C397  C    -0.288558     -0.108394     -0.250821 
 C398  C    -0.303607     -0.148604     -0.177560 
 O399  O    -0.180953     -0.391739      0.411922 
 C400  C    -0.096691     -0.404387      0.377810 
 C401  C    -0.101231     -0.492649      0.337412 
 C402  C    -0.098965      0.425549      0.379554 
 C403  C    -0.133421      0.338423      0.348790 
 H404  H    -0.356064     -0.248292     -0.419684 
 H405  H    -0.072292     -0.252703      0.425704 
 H406  H    -0.074336     -0.353366      0.345893 
 H407  H    -0.050658     -0.413415      0.423288 
 H408  H    -0.335572     -0.020863     -0.384088 
 H409  H    -0.391237     -0.105194     -0.421901 
 H410  H    -0.162924     -0.495999      0.304112 
 H411  H    -0.041403     -0.494585      0.303349 
 H412  H    -0.425535     -0.110897     -0.293379 
 H413  H    -0.360372     -0.202372     -0.315887 
 H414  H    -0.224879     -0.134428     -0.273562 
 H415  H    -0.275041     -0.036762     -0.246256 
 H416  H    -0.031778      0.408989      0.395648 
 H417  H    -0.139061      0.440241      0.426008 
 H418  H    -0.118782      0.281069      0.381642 
 H419  H    -0.207903      0.341088      0.344290 
 H420  H    -0.106274      0.316368      0.297823 
 H421  H    -0.304029     -0.215473     -0.184521 
 H422  H    -0.247274     -0.132214     -0.146438 
 H423  H    -0.364898     -0.126787     -0.153674 
loop_  
_geom_bond_atom_site_label_1  
_geom_bond_atom_site_label_2  
Cu0   Cu1 
Cu0   O4 
Cu0   O7 
Cu0   O10 
Cu0   O13 
Cu0   N82 
Cu1   O2 
Cu1   O5 
Cu1   O8 
Cu1   O11 
Cu1   N276 
O2   C3 
C3   O4 
C3   C32 
O5   C6 
C6   O7 
C6   C85 
O8   C9 
C9   O10 
C9   C177 
O11   C12 
C12   O13 
C12   C124 
Cu14   Cu15 
Cu14   O18 
Cu14   O21 
Cu14   O24 
Cu14   O27 
Cu14   N174 
Cu15   O16 
Cu15   O19 
Cu15   O22 
Cu15   O25 
Cu15   N368 
O16   C17 
C17   O18 
C17   C121 
O19   C20 
C20   O21 
C20   C180 
O22   C23 
C23   O24 
C23   C88 
O25   C26 
C26   O27 
C26   C29 
C28   C29 
C28   C33 
C28   H45 
C29   C30 
C30   C31 
C30   O34 
C31   C32 
C31   H44 
C32   C33 
C33   O39 
O34   C35 
C35   C36 
C35   H48 
C35   H49 
C36   C37 
C36   H52 
C36   H53 
C37   C38 
C37   H54 
C37   H55 
C38   H61 
C38   H62 
C38   H63 
O39   C40 
C40   C41 
C40   H46 
C40   H47 
C41   C42 
C41   H50 
C41   H51 
C42   C43 
C42   H56 
C42   H57 
C43   H58 
C43   H59 
C43   H60 
N64   C65 
N64   C66 
N64   C67 
N64   Cu213 
C65   C71 
C65   H72 
C65   H73 
C66   C68 
C66   H69 
C66   H70 
C67   C74 
C67   H75 
C67   H76 
C68   H79 
C68   H80 
C68   N82 
C71   H77 
C71   H78 
C71   N82 
C74   H81 
C74   N82 
C74   H83 
C84   C85 
C84   C89 
C84   H101 
C85   C86 
C86   C87 
C86   O90 
C87   C88 
C87   H100 
C88   C89 
C89   O95 
O90   C91 
C91   C92 
C91   H104 
C91   H105 
C92   C93 
C92   H108 
C92   H109 
C93   C94 
C93   H110 
C93   H111 
C94   H117 
C94   H118 
C94   H119 
O95   C96 
C96   C97 
C96   H102 
C96   H103 
C97   C98 
C97   H106 
C97   H107 
C98   C99 
C98   H112 
C98   H113 
C99   H114 
C99   H115 
C99   H116 
C120   C121 
C120   C125 
C120   H137 
C121   C122 
C122   C123 
C122   O126 
C123   C124 
C123   H136 
C124   C125 
C125   O131 
O126   C127 
C127   C128 
C127   H140 
C127   H141 
C128   C129 
C128   H144 
C128   H145 
C129   C130 
C129   H146 
C129   H147 
C130   H153 
C130   H154 
C130   H155 
O131   C132 
C132   C133 
C132   H138 
C132   H139 
C133   C134 
C133   H142 
C133   H143 
C134   C135 
C134   H148 
C134   H149 
C135   H150 
C135   H151 
C135   H152 
N156   C157 
N156   C158 
N156   C159 
N156   Cu227 
C157   C163 
C157   H164 
C157   H165 
C158   C160 
C158   H161 
C158   H162 
C159   C166 
C159   H167 
C159   H168 
C160   H171 
C160   H172 
C160   N174 
C163   H169 
C163   H170 
C163   N174 
C166   H173 
C166   N174 
C166   H175 
C176   C177 
C176   C181 
C176   H193 
C177   C178 
C178   C179 
C178   O182 
C179   C180 
C179   H192 
C180   C181 
C181   O187 
O182   C183 
C183   C184 
C183   H196 
C183   H197 
C184   C185 
C184   H200 
C184   H201 
C185   C186 
C185   H202 
C185   H203 
C186   H209 
C186   H210 
C186   H211 
O187   C188 
C188   C189 
C188   H194 
C188   H195 
C189   C190 
C189   H198 
C189   H199 
C190   C191 
C190   H204 
C190   H205 
C191   H206 
C191   H207 
C191   H208 
Cu212   Cu213 
Cu212   O216 
Cu212   O219 
Cu212   O222 
Cu212   O225 
Cu212   N294 
Cu213   O214 
Cu213   O217 
Cu213   O220 
Cu213   O223 
O214   C215 
C215   O216 
C215   C244 
O217   C218 
C218   O219 
C218   C300 
O220   C221 
C221   O222 
C221   C389 
O223   C224 
C224   O225 
C224   C333 
Cu226   Cu227 
Cu226   O230 
Cu226   O233 
Cu226   O236 
Cu226   O239 
Cu226   N386 
Cu227   O228 
Cu227   O231 
Cu227   O234 
Cu227   O237 
O228   C229 
C229   O230 
C229   C336 
O231   C232 
C232   O233 
C232   C392 
O234   C235 
C235   O236 
C235   C297 
O237   C238 
C238   O239 
C238   C241 
C240   C241 
C240   C245 
C240   H257 
C241   C242 
C242   C243 
C242   O246 
C243   C244 
C243   H256 
C244   C245 
C245   O251 
O246   C247 
C247   C248 
C247   H260 
C247   H261 
C248   C249 
C248   H264 
C248   H265 
C249   C250 
C249   H266 
C249   H267 
C250   H273 
C250   H274 
C250   H275 
O251   C252 
C252   C253 
C252   H258 
C252   H259 
C253   C254 
C253   H262 
C253   H263 
C254   C255 
C254   H268 
C254   H269 
C255   H270 
C255   H271 
C255   H272 
N276   C277 
N276   C278 
N276   C279 
C277   C283 
C277   H284 
C277   H285 
C278   C280 
C278   H281 
C278   H282 
C279   C286 
C279   H287 
C279   H288 
C280   H291 
C280   H292 
C280   N294 
C283   H289 
C283   H290 
C283   N294 
C286   H293 
C286   N294 
C286   H295 
C296   C297 
C296   C301 
C296   H313 
C297   C298 
C298   C299 
C298   O302 
C299   C300 
C299   H312 
C300   C301 
C301   O307 
O302   C303 
C303   C304 
C303   H316 
C303   H317 
C304   C305 
C304   H320 
C304   H321 
C305   C306 
C305   H322 
C305   H323 
C306   H329 
C306   H330 
C306   H331 
O307   C308 
C308   C309 
C308   H314 
C308   H315 
C309   C310 
C309   H318 
C309   H319 
C310   C311 
C310   H324 
C310   H325 
C311   H326 
C311   H327 
C311   H328 
C332   C333 
C332   C337 
C332   H349 
C333   C334 
C334   C335 
C334   O338 
C335   C336 
C335   H348 
C336   C337 
C337   O343 
O338   C339 
C339   C340 
C339   H352 
C339   H353 
C340   C341 
C340   H356 
C340   H357 
C341   C342 
C341   H358 
C341   H359 
C342   H365 
C342   H366 
C342   H367 
O343   C344 
C344   C345 
C344   H350 
C344   H351 
C345   C346 
C345   H354 
C345   H355 
C346   C347 
C346   H360 
C346   H361 
C347   H362 
C347   H363 
C347   H364 
N368   C369 
N368   C370 
N368   C371 
C369   C375 
C369   H376 
C369   H377 
C370   C372 
C370   H373 
C370   H374 
C371   C378 
C371   H379 
C371   H380 
C372   H383 
C372   H384 
C372   N386 
C375   H381 
C375   H382 
C375   N386 
C378   H385 
C378   N386 
C378   H387 
C388   C389 
C388   C393 
C388   H405 
C389   C390 
C390   C391 
C390   O394 
C391   C392 
C391   H404 
C392   C393 
C393   O399 
O394   C395 
C395   C396 
C395   H408 
C395   H409 
C396   C397 
C396   H412 
C396   H413 
C397   C398 
C397   H414 
C397   H415 
C398   H421 
C398   H422 
C398   H423 
O399   C400 
C400   C401 
C400   H406 
C400   H407 
C401   C402 
C401   H410 
C401   H411 
C402   C403 
C402   H416 
C402   H417 
C403   H418 
C403   H419 
C403   H420 
  
#END  
