data_
_symmetry_cell_setting           triclinic 
_symmetry_space_group_name_H-M   'P 1' 
_symmetry_Int_Tables_number      1 
loop_ 
_symmetry_equiv_pos_site_id 
_symmetry_equiv_pos_as_xyz 
1 x,y,z 
_cell_length_a             14.784079        
_cell_length_b             15.918764        
_cell_length_c             19.132794        
_cell_angle_alpha          90.991485        
_cell_angle_beta           88.248302        
_cell_angle_gamma          89.879882        
loop_  
_atom_site_label   
_atom_site_type_symbol  
_atom_site_fract_x  
_atom_site_fract_y  
_atom_site_fract_z 
 Cu0  Cu     0.003848     -0.009333      0.059069 
 Cu1  Cu     0.015690     -0.017285     -0.075910 
 O2  O    -0.077306      0.073011     -0.064080 
 C3  C    -0.119921      0.092557     -0.005814 
 O4  O    -0.110530      0.060873      0.053135 
 O5  O     0.113028      0.066424     -0.065612 
 C6  C     0.120771      0.106897     -0.009961 
 O7  O     0.074961      0.091758      0.047177 
 O8  O    -0.083574     -0.103402     -0.057778 
 C9  C    -0.101251     -0.137563      0.000331 
 O10  O    -0.066315     -0.112698      0.058159 
 O11  O     0.098945     -0.112150     -0.058222 
 C12  C     0.143287     -0.117492     -0.003879 
 O13  O     0.129196     -0.072223      0.053346 
 Cu14  Cu    -0.490691      0.488063      0.072789 
 Cu15  Cu    -0.482512      0.484128     -0.064064 
 O16  O     0.417237     -0.426455     -0.061407 
 C17  C     0.396851     -0.389913     -0.001222 
 O18  O     0.419642     -0.411728      0.061187 
 O19  O    -0.405383     -0.414128     -0.051471 
 C20  C    -0.372970     -0.392841      0.005982 
 O21  O    -0.393434     -0.424986      0.064451 
 O22  O     0.419376      0.395079     -0.055330 
 C23  C     0.386396      0.373995      0.006433 
 O24  O     0.403042      0.405184      0.066086 
 O25  O    -0.371065      0.407527     -0.047679 
 C26  C    -0.361593      0.374777      0.011490 
 O27  O    -0.407685      0.394286      0.068812 
 C28  C    -0.259868      0.280649     -0.051277 
 C29  C    -0.293130      0.307752      0.012329 
 C30  C    -0.266169      0.268029      0.071037 
 C31  C    -0.210324      0.196649      0.065837 
 C32  C    -0.176569      0.170305     -0.000516 
 C33  C    -0.197750      0.219158     -0.060858 
 O34  O    -0.301948      0.288714      0.137662 
 C35  C    -0.332766      0.224893      0.185041 
 C36  C    -0.268097      0.228919      0.246457 
 C37  C    -0.259144      0.318195      0.278886 
 C38  C    -0.181782      0.328221      0.329041 
 O39  O    -0.171935      0.193490     -0.124275 
 C40  C    -0.150930      0.249647     -0.174921 
 C41  C    -0.188625      0.221734     -0.245504 
 C42  C    -0.290451      0.210932     -0.251220 
 C43  C    -0.314615      0.176344     -0.322691 
 H44  H    -0.188860      0.162859      0.114583 
 H45  H    -0.277746      0.309661     -0.098571 
 H46  H    -0.162717      0.318878     -0.163552 
 H47  H    -0.077595      0.245122     -0.177730 
 H48  H    -0.402166      0.240258      0.195570 
 H49  H    -0.337215      0.162803      0.160998 
 H50  H    -0.158534      0.261789     -0.289628 
 H51  H    -0.163459      0.157243     -0.255597 
 H52  H    -0.280849      0.181370      0.286156 
 H53  H    -0.198409      0.212726      0.226074 
 H54  H    -0.261822      0.366635      0.239679 
 H55  H    -0.323060      0.319225      0.311714 
 H56  H    -0.316070      0.172999     -0.208272 
 H57  H    -0.323485      0.270149     -0.247627 
 H58  H    -0.384110      0.186082     -0.328653 
 H59  H    -0.280738      0.216202     -0.359902 
 H60  H    -0.305211      0.107131     -0.326478 
 H61  H    -0.115006      0.330021      0.301896 
 H62  H    -0.187493      0.390578      0.351528 
 H63  H    -0.188806      0.280914      0.370809 
 N64  N     0.001620     -0.002808      0.316649 
 C65  C     0.091881      0.012828      0.291415 
 C66  C    -0.021558     -0.087154      0.291932 
 C67  C    -0.058297      0.060212      0.285638 
 C68  C    -0.010548     -0.099941      0.209963 
 H69  H     0.023293     -0.137319      0.319849 
 H70  H    -0.092613     -0.102440      0.307333 
 C71  C     0.093839      0.012760      0.210517 
 H72  H     0.117042      0.076256      0.308531 
 H73  H     0.145378     -0.035593      0.308550 
 C74  C    -0.063858      0.044201      0.204414 
 H75  H    -0.128691      0.052486      0.310618 
 H76  H    -0.035155      0.125116      0.301352 
 H77  H     0.114366      0.074899      0.191168 
 H78  H     0.147705     -0.030839      0.191137 
 H79  H     0.041254     -0.144373      0.190766 
 H80  H    -0.073327     -0.129888      0.197871 
 H81  H    -0.056853      0.101460      0.173313 
 N82  N     0.007788     -0.016477      0.179062 
 H83  H    -0.130654      0.015191      0.190076 
 C84  C     0.249724      0.300545      0.051398 
 C85  C     0.323999      0.301175      0.005807 
 C86  C     0.328379      0.235593     -0.046403 
 C87  C     0.258783      0.179445     -0.054729 
 C88  C     0.184773      0.178404     -0.005484 
 C89  C     0.179033      0.243070      0.046804 
 O90  O     0.404974      0.223660     -0.091840 
 C91  C     0.491377      0.221549     -0.061397 
 C92  C    -0.447269      0.167451     -0.110887 
 C93  C    -0.469081      0.076034     -0.102519 
 C94  C    -0.392142      0.018651     -0.126315 
 O95  O     0.113156      0.261331      0.095676 
 C96  C     0.025347      0.287400      0.068216 
 C97  C     0.031831      0.374417      0.034258 
 C98  C     0.028076      0.449461      0.086753 
 C99  C     0.065292     -0.466465      0.059566 
 H100  H     0.273332      0.127444     -0.092854 
 H101  H     0.232416      0.345950      0.090095 
 H102  H     0.010030      0.245013      0.025404 
 H103  H    -0.026406      0.273101      0.109269 
 H104  H    -0.479936      0.285878     -0.053399 
 H105  H     0.488681      0.197186     -0.009250 
 H106  H     0.094143      0.372826      0.000610 
 H107  H    -0.020698      0.383632     -0.007502 
 H108  H    -0.451852      0.191099     -0.166585 
 H109  H    -0.378596      0.178349     -0.091841 
 H110  H    -0.481169      0.063766     -0.048756 
 H111  H     0.469992      0.056719     -0.132628 
 H112  H    -0.038733      0.454309      0.111129 
 H113  H     0.073815      0.433974      0.129339 
 H114  H     0.017887     -0.449570      0.020022 
 H115  H     0.059078     -0.415543      0.098834 
 H116  H     0.132881     -0.477640      0.036870 
 H117  H    -0.418044     -0.048754     -0.132920 
 H118  H    -0.365272      0.043640     -0.177432 
 H119  H    -0.335607      0.026718     -0.091965 
 C120  C     0.200316     -0.252091     -0.047642 
 C121  C     0.214227     -0.182585     -0.003000 
 C122  C     0.293753     -0.173866      0.038829 
 C123  C     0.346182     -0.246946      0.041094 
 C124  C     0.333948     -0.314880     -0.002571 
 C125  C     0.263297     -0.318952     -0.047783 
 O126  O     0.314409     -0.109453      0.079090 
 C127  C     0.405721     -0.074230      0.079400 
 C128  C     0.397052      0.018798      0.091075 
 C129  C     0.354411      0.048858      0.159775 
 C130  C     0.376565      0.136806      0.185109 
 O131  O     0.244098     -0.389398     -0.083033 
 C132  C     0.167369     -0.388054     -0.127141 
 C133  C     0.155890     -0.466066     -0.167024 
 C134  C     0.127690      0.452577     -0.127722 
 C135  C     0.097412      0.385151     -0.179283 
 H136  H     0.405311     -0.247427      0.074344 
 H137  H     0.143678     -0.258511     -0.081678 
 H138  H     0.105033     -0.375836     -0.096615 
 H139  H     0.178100     -0.337937     -0.166088 
 H140  H     0.449707     -0.097809      0.119865 
 H141  H     0.441805     -0.088878      0.030729 
 H142  H     0.105069     -0.451954     -0.203398 
 H143  H     0.219307     -0.476212     -0.190977 
 H144  H     0.464018      0.043506      0.086653 
 H145  H     0.357907      0.047230      0.049245 
 H146  H     0.278445      0.047215      0.156300 
 H147  H     0.365995      0.002382      0.198438 
 H148  H     0.189026      0.432168     -0.095522 
 H149  H     0.073805      0.465518     -0.091991 
 H150  H     0.140406      0.376733     -0.225604 
 H151  H     0.100632      0.326346     -0.154541 
 H152  H     0.027941      0.395033     -0.197263 
 H153  H     0.445461      0.139437      0.194648 
 H154  H     0.364104      0.185894      0.149700 
 H155  H     0.344198      0.156879      0.234850 
 N156  N     0.495750     -0.494835      0.318147 
 C157  C     0.462748      0.421178      0.287707 
 C158  C     0.439103     -0.431777      0.287125 
 C159  C    -0.409556     -0.491288      0.296922 
 C160  C     0.446432     -0.434715      0.205907 
 H161  H     0.367146     -0.432602      0.305571 
 H162  H     0.456449     -0.369059      0.304160 
 C163  C     0.466016      0.415793      0.207354 
 H164  H    -0.489658      0.372850      0.309778 
 H165  H     0.396545      0.404833      0.311211 
 C166  C    -0.400873     -0.498773      0.217033 
 H167  H    -0.385248     -0.423422      0.305822 
 H168  H    -0.364041      0.464039      0.322261 
 H169  H    -0.494617      0.358842      0.188536 
 H170  H     0.396845      0.410916      0.184060 
 H171  H     0.375996     -0.453995      0.187891 
 H172  H     0.466136     -0.375055      0.183956 
 H173  H    -0.365462      0.439133      0.206757 
 N174  N    -0.490291      0.493332      0.183405 
 H175  H    -0.358564     -0.449292      0.192074 
 C176  C    -0.283528     -0.288183      0.065951 
 C177  C    -0.295359     -0.335983      0.005153 
 C178  C    -0.239043     -0.322433     -0.053547 
 C179  C    -0.185500     -0.248330     -0.055869 
 C180  C    -0.169654     -0.202960      0.004703 
 C181  C    -0.219201     -0.222276      0.067628 
 O182  O    -0.239462     -0.371461     -0.112299 
 C183  C    -0.199999     -0.448975     -0.098006 
 C184  C    -0.133915     -0.466250     -0.160262 
 C185  C    -0.165377     -0.471023     -0.235002 
 C186  C    -0.214992     -0.395874     -0.263876 
 O187  O    -0.201136     -0.177762      0.129943 
 C188  C    -0.279179     -0.129766      0.155047 
 C189  C    -0.286491     -0.147833      0.233550 
 C190  C    -0.373124     -0.109372      0.268014 
 C191  C    -0.363833     -0.011941      0.275536 
 H192  H    -0.149621     -0.236919     -0.109914 
 H193  H    -0.336987     -0.300414      0.114119 
 H194  H    -0.281727     -0.064746      0.138297 
 H195  H    -0.338737     -0.153069      0.127781 
 H196  H    -0.170343     -0.454560     -0.045603 
 H197  H    -0.250493      0.496394     -0.101881 
 H198  H    -0.287292     -0.215120      0.242034 
 H199  H    -0.228493     -0.115570      0.251921 
 H200  H    -0.075450     -0.417261     -0.160090 
 H201  H    -0.100589      0.473274     -0.146895 
 H202  H    -0.109993     -0.484128     -0.271700 
 H203  H    -0.205471      0.469438     -0.246048 
 H204  H    -0.429128     -0.137061      0.239280 
 H205  H    -0.381062     -0.139838      0.318064 
 H206  H    -0.348925      0.020336      0.226674 
 H207  H    -0.422791      0.022929      0.297089 
 H208  H    -0.310264     -0.000509      0.314621 
 H209  H    -0.176583     -0.338252     -0.263646 
 H210  H    -0.230803     -0.411592     -0.317446 
 H211  H    -0.283680     -0.389026     -0.235222 
 Cu212  Cu    -0.005285      0.001983     -0.438151 
 Cu213  Cu    -0.012206     -0.000340      0.425551 
 O214  O    -0.115236      0.080964      0.444353 
 C215  C    -0.115705      0.124230     -0.499409 
 O216  O    -0.075834      0.105286     -0.443898 
 O217  O     0.073881      0.106399      0.435779 
 C218  C     0.121145      0.115647      0.488779 
 O219  O     0.109220      0.072395     -0.457873 
 O220  O    -0.093838     -0.100200      0.443195 
 C221  C    -0.130229     -0.116501     -0.498414 
 O222  O    -0.113713     -0.071815     -0.445012 
 O223  O     0.093260     -0.082609      0.429120 
 C224  C     0.110380     -0.116967      0.486180 
 O225  O     0.072149     -0.102298     -0.454494 
 Cu226  Cu     0.493191      0.496563     -0.430301 
 Cu227  Cu     0.492910     -0.499272      0.434574 
 O228  O     0.415934     -0.402021      0.437789 
 C229  C     0.376227     -0.387936      0.498750 
 O230  O     0.385411     -0.427196     -0.444510 
 O231  O    -0.403918     -0.423143      0.451570 
 C232  C    -0.394601     -0.382907     -0.489826 
 O233  O    -0.438875     -0.398052     -0.434234 
 O234  O     0.383290      0.436295      0.449742 
 C235  C     0.365514      0.391358     -0.497167 
 O236  O     0.403551      0.394249     -0.439040 
 O237  O    -0.429690      0.399101      0.431281 
 C238  C    -0.388810      0.385462      0.489862 
 O239  O    -0.395680      0.427508     -0.454646 
 C240  C    -0.263553      0.177184      0.470364 
 C241  C    -0.181595      0.195202      0.499653 
 C242  C    -0.168494      0.273369     -0.465132 
 C243  C    -0.236161      0.334829     -0.466235 
 C244  C    -0.318436      0.317303      0.496046 
 C245  C    -0.331660      0.235124      0.466881 
 O246  O    -0.095227      0.303522     -0.431080 
 C247  C    -0.006999      0.294063     -0.465200 
 C248  C     0.053677      0.325109     -0.408084 
 C249  C     0.039006      0.416395     -0.379085 
 C250  C     0.015436      0.473859     -0.440536 
 O251  O    -0.404406      0.211508      0.426949 
 C252  C    -0.497721      0.226767      0.459302 
 C253  C     0.445849      0.172291      0.409560 
 C254  C     0.460406      0.076655      0.405823 
 C255  C     0.416058      0.029280      0.465579 
 H256  H    -0.231136      0.386927     -0.430228 
 H257  H    -0.268944      0.106728      0.457470 
 H258  H     0.481886      0.216269     -0.486648 
 H259  H     0.481064      0.291861      0.452195 
 H260  H     0.020131      0.228695     -0.475806 
 H261  H    -0.008839      0.329871      0.484539 
 H262  H     0.372632      0.187582      0.424730 
 H263  H     0.453470      0.192325      0.355804 
 H264  H     0.062065      0.284770     -0.361946 
 H265  H     0.122432      0.327801     -0.430086 
 H266  H    -0.017320      0.416381     -0.339992 
 H267  H     0.097776      0.436194     -0.349526 
 H268  H     0.430751      0.058683      0.358727 
 H269  H    -0.465498      0.066137      0.399121 
 H270  H     0.340819      0.034049      0.456767 
 H271  H     0.446552     -0.034078      0.467510 
 H272  H     0.437260      0.057921     -0.485009 
 H273  H    -0.010859     -0.467234     -0.417833 
 H274  H     0.078031      0.486876     -0.470482 
 H275  H    -0.042135      0.454356     -0.475267 
 N276  N    -0.000487     -0.036220     -0.184926 
 C277  C     0.062159     -0.097256     -0.212922 
 C278  C    -0.093155     -0.054211     -0.211693 
 C279  C     0.026448      0.047035     -0.210087 
 C280  C    -0.093795     -0.051018     -0.294199 
 H281  H    -0.108326     -0.121920     -0.200956 
 H282  H    -0.148001     -0.012057     -0.186825 
 C283  C     0.056171     -0.090195     -0.295695 
 H284  H     0.130715     -0.074479     -0.201871 
 H285  H     0.050358     -0.158327     -0.191181 
 C286  C     0.025461      0.055263     -0.290104 
 H287  H    -0.013392      0.099422     -0.187248 
 H288  H     0.103579      0.056004     -0.201416 
 H289  H     0.121610     -0.078527     -0.322665 
 H290  H     0.028544     -0.152095     -0.319088 
 H291  H    -0.106408     -0.111051     -0.319161 
 H292  H    -0.150182     -0.008741     -0.313304 
 H293  H     0.086853      0.076560     -0.319710 
 N294  N    -0.008118     -0.024364     -0.323219 
 H295  H    -0.023975      0.105275     -0.300339 
 C296  C     0.197073      0.235680      0.433364 
 C297  C     0.191219      0.181572      0.489251 
 C298  C     0.240730      0.195199     -0.453349 
 C299  C     0.299091      0.266802     -0.448851 
 C300  C     0.300485      0.317628      0.494157 
 C301  C     0.251190      0.306858      0.431611 
 O302  O     0.235831      0.143607     -0.397598 
 C303  C     0.319563      0.103700     -0.379937 
 C304  C     0.325212      0.092440     -0.300705 
 C305  C     0.334666      0.171344     -0.254143 
 C306  C     0.253483      0.229429     -0.243108 
 O307  O     0.254236      0.362495      0.379401 
 C308  C     0.220514      0.347706      0.308955 
 C309  C     0.211908      0.429418      0.273284 
 C310  C     0.129642      0.480707      0.301652 
 C311  C     0.152282     -0.472539      0.370659 
 H312  H     0.338549      0.277165     -0.402849 
 H313  H     0.155429      0.225572      0.386417 
 H314  H     0.272121      0.316062      0.277448 
 H315  H     0.161413      0.305873      0.311593 
 H316  H     0.326695      0.042787     -0.408555 
 H317  H     0.382015      0.137727     -0.397342 
 H318  H     0.265768      0.472358      0.284661 
 H319  H     0.201076      0.420622      0.216508 
 H320  H     0.269756      0.059057     -0.277129 
 H321  H     0.388649      0.052329     -0.295292 
 H322  H     0.364378      0.147234     -0.201400 
 H323  H     0.387041      0.215361     -0.279764 
 H324  H     0.106017     -0.477527      0.263770 
 H325  H     0.069321      0.444709      0.312092 
 H326  H     0.215547     -0.435413      0.369009 
 H327  H     0.100435     -0.429365      0.384734 
 H328  H     0.157735      0.485184      0.415170 
 H329  H     0.188341      0.197629     -0.223685 
 H330  H     0.261332      0.281081     -0.206102 
 H331  H     0.236905      0.257110     -0.293142 
 C332  C     0.178826     -0.231726     -0.455462 
 C333  C     0.185137     -0.180895      0.485128 
 C334  C     0.247444     -0.198137      0.428367 
 C335  C     0.315839     -0.256537      0.438718 
 C336  C     0.311592     -0.306516      0.498306 
 C337  C     0.245755     -0.292903     -0.446330 
 O338  O     0.239711     -0.155646      0.366077 
 C339  C     0.308614     -0.153948      0.305367 
 C340  C     0.305357     -0.225450      0.254747 
 C341  C     0.211401     -0.235380      0.220830 
 C342  C     0.182228     -0.317476      0.186907 
 O343  O     0.245919     -0.351595     -0.394246 
 C344  C     0.186893     -0.334546     -0.333480 
 C345  C     0.217471     -0.254169     -0.291030 
 C346  C     0.308076     -0.256283     -0.253270 
 C347  C     0.312966     -0.178111     -0.206065 
 H348  H     0.368776     -0.259233      0.397740 
 H349  H     0.130679     -0.220481     -0.411201 
 H350  H     0.117488     -0.336230     -0.354269 
 H351  H     0.196017     -0.391906     -0.301500 
 H352  H     0.298629     -0.093311      0.281163 
 H353  H     0.377523     -0.157019      0.321956 
 H354  H     0.214991     -0.202205     -0.326880 
 H355  H     0.159939     -0.240191     -0.257600 
 H356  H     0.359859     -0.220535      0.218760 
 H357  H     0.318154     -0.281435      0.283928 
 H358  H     0.157302     -0.207720      0.255782 
 H359  H     0.211442     -0.193208      0.174255 
 H360  H     0.316062     -0.316062     -0.223800 
 H361  H     0.363360     -0.256001     -0.294832 
 H362  H     0.376836     -0.166998     -0.182855 
 H363  H     0.305640     -0.123058     -0.240117 
 H364  H     0.262781     -0.173097     -0.165074 
 H365  H     0.240453     -0.345788      0.156867 
 H366  H     0.169975     -0.364282      0.227893 
 H367  H     0.116834     -0.312245      0.154319 
 N368  N    -0.494386      0.483403     -0.184048 
 C369  C    -0.429168      0.427472     -0.218878 
 C370  C     0.417699      0.455856     -0.207017 
 C371  C    -0.477116     -0.431120     -0.205610 
 C372  C     0.411174      0.462535     -0.285889 
 H373  H     0.406995      0.386923     -0.191066 
 H374  H     0.363916      0.496702     -0.181673 
 C375  C    -0.427319      0.429287     -0.298801 
 H376  H    -0.361172      0.437304     -0.200867 
 H377  H    -0.440860      0.364583     -0.195344 
 C378  C    -0.473497     -0.427446     -0.288854 
 H379  H     0.465713     -0.394293     -0.183556 
 H380  H    -0.413398     -0.412841     -0.180015 
 H381  H    -0.358336      0.453137     -0.318246 
 H382  H    -0.440070      0.364913     -0.323115 
 H383  H     0.381607      0.401634     -0.301845 
 H384  H     0.357806     -0.493313     -0.304695 
 H385  H    -0.400420     -0.411841     -0.305689 
 N386  N    -0.497872      0.487749     -0.319318 
 H387  H     0.478743     -0.379325     -0.302703 
 C388  C    -0.264233     -0.307312      0.451141 
 C389  C    -0.322946     -0.315264     -0.488024 
 C390  C    -0.309435     -0.262246     -0.428219 
 C391  C    -0.243805     -0.202132     -0.433496 
 C392  C    -0.193653     -0.187269     -0.494610 
 C393  C    -0.205160     -0.243472      0.449805 
 O394  O    -0.364603     -0.272720     -0.370225 
 C395  C    -0.348260     -0.225055     -0.307415 
 C396  C    -0.391374     -0.138236     -0.311803 
 C397  C    -0.494937     -0.135447     -0.322346 
 C398  C     0.476642     -0.136647     -0.400898 
 O399  O    -0.150140     -0.235397      0.389127 
 C400  C    -0.076890     -0.293145      0.383486 
 C401  C    -0.062616     -0.323685      0.303281 
 C402  C    -0.141433     -0.375602      0.286627 
 C403  C    -0.130851     -0.416335      0.216560 
 H404  H    -0.232064     -0.164916     -0.383765 
 H405  H    -0.280408     -0.348738      0.407043 
 H406  H    -0.017800     -0.265397      0.402775 
 H407  H    -0.097599     -0.343587      0.423580 
 H408  H    -0.386597     -0.262572     -0.266878 
 H409  H    -0.275073     -0.231282     -0.295773 
 H410  H    -0.053850     -0.269599      0.268900 
 H411  H     0.003093     -0.353909      0.301678 
 H412  H    -0.362197     -0.103573     -0.269373 
 H413  H    -0.359418     -0.109348     -0.358558 
 H414  H     0.478404     -0.191372     -0.295710 
 H415  H     0.470523     -0.080787     -0.298524 
 H416  H    -0.152069     -0.419924      0.328227 
 H417  H    -0.202847     -0.332259      0.290065 
 H418  H    -0.193067     -0.456707      0.211859 
 H419  H    -0.141391     -0.365334      0.178977 
 H420  H    -0.066355     -0.450443      0.207875 
 H421  H     0.403123     -0.126928     -0.398446 
 H422  H    -0.493306     -0.090494     -0.434307 
 H423  H     0.491648     -0.193303     -0.428564 
loop_  
_geom_bond_atom_site_label_1  
_geom_bond_atom_site_label_2  
Cu0   Cu1 
Cu0   O4 
Cu0   O7 
Cu0   O10 
Cu0   O13 
Cu0   N82 
Cu1   O2 
Cu1   O5 
Cu1   O8 
Cu1   O11 
Cu1   N276 
O2   C3 
C3   O4 
C3   C32 
O5   C6 
C6   O7 
C6   C88 
O8   C9 
C9   O10 
C9   C180 
O11   C12 
C12   O13 
C12   C121 
Cu14   Cu15 
Cu14   O18 
Cu14   O21 
Cu14   O24 
Cu14   O27 
Cu14   N174 
Cu15   O16 
Cu15   O19 
Cu15   O22 
Cu15   O25 
Cu15   N368 
O16   C17 
C17   O18 
C17   C124 
O19   C20 
C20   O21 
C20   C177 
O22   C23 
C23   O24 
C23   C85 
O25   C26 
C26   O27 
C26   C29 
C28   C29 
C28   C33 
C28   H45 
C29   C30 
C30   C31 
C30   O34 
C31   C32 
C31   H44 
C32   C33 
C33   O39 
O34   C35 
C35   C36 
C35   H48 
C35   H49 
C36   C37 
C36   H52 
C36   H53 
C37   C38 
C37   H54 
C37   H55 
C38   H61 
C38   H62 
C38   H63 
O39   C40 
C40   C41 
C40   H46 
C40   H47 
C41   C42 
C41   H50 
C41   H51 
C42   C43 
C42   H56 
C42   H57 
C43   H58 
C43   H59 
C43   H60 
N64   C65 
N64   C66 
N64   C67 
N64   Cu213 
C65   C71 
C65   H72 
C65   H73 
C66   C68 
C66   H69 
C66   H70 
C67   C74 
C67   H75 
C67   H76 
C68   H79 
C68   H80 
C68   N82 
C71   H77 
C71   H78 
C71   N82 
C74   H81 
C74   N82 
C74   H83 
C84   C85 
C84   C89 
C84   H101 
C85   C86 
C86   C87 
C86   O90 
C87   C88 
C87   H100 
C88   C89 
C89   O95 
O90   C91 
C91   C92 
C91   H104 
C91   H105 
C92   C93 
C92   H108 
C92   H109 
C93   C94 
C93   H110 
C93   H111 
C94   H117 
C94   H118 
C94   H119 
O95   C96 
C96   C97 
C96   H102 
C96   H103 
C97   C98 
C97   H106 
C97   H107 
C98   C99 
C98   H112 
C98   H113 
C99   H114 
C99   H115 
C99   H116 
C120   C121 
C120   C125 
C120   H137 
C121   C122 
C122   C123 
C122   O126 
C123   C124 
C123   H136 
C124   C125 
C125   O131 
O126   C127 
C127   C128 
C127   H140 
C127   H141 
C128   C129 
C128   H144 
C128   H145 
C129   C130 
C129   H146 
C129   H147 
C130   H153 
C130   H154 
C130   H155 
O131   C132 
C132   C133 
C132   H138 
C132   H139 
C133   C134 
C133   H142 
C133   H143 
C134   C135 
C134   H148 
C134   H149 
C135   H150 
C135   H151 
C135   H152 
N156   C157 
N156   C158 
N156   C159 
N156   Cu227 
C157   C163 
C157   H164 
C157   H165 
C158   C160 
C158   H161 
C158   H162 
C159   C166 
C159   H167 
C159   H168 
C160   H171 
C160   H172 
C160   N174 
C163   H169 
C163   H170 
C163   N174 
C166   H173 
C166   N174 
C166   H175 
C176   C177 
C176   C181 
C176   H193 
C177   C178 
C178   C179 
C178   O182 
C179   C180 
C179   H192 
C180   C181 
C181   O187 
O182   C183 
C183   C184 
C183   H196 
C183   H197 
C184   C185 
C184   H200 
C184   H201 
C185   C186 
C185   H202 
C185   H203 
C186   H209 
C186   H210 
C186   H211 
O187   C188 
C188   C189 
C188   H194 
C188   H195 
C189   C190 
C189   H198 
C189   H199 
C190   C191 
C190   H204 
C190   H205 
C191   H206 
C191   H207 
C191   H208 
Cu212   Cu213 
Cu212   O216 
Cu212   O219 
Cu212   O222 
Cu212   O225 
Cu212   N294 
Cu213   O214 
Cu213   O217 
Cu213   O220 
Cu213   O223 
O214   C215 
C215   O216 
C215   C241 
O217   C218 
C218   O219 
C218   C297 
O220   C221 
C221   O222 
C221   C392 
O223   C224 
C224   O225 
C224   C333 
Cu226   Cu227 
Cu226   O230 
Cu226   O233 
Cu226   O236 
Cu226   O239 
Cu226   N386 
Cu227   O228 
Cu227   O231 
Cu227   O234 
Cu227   O237 
O228   C229 
C229   O230 
C229   C336 
O231   C232 
C232   O233 
C232   C389 
O234   C235 
C235   O236 
C235   C300 
O237   C238 
C238   O239 
C238   C244 
C240   C241 
C240   C245 
C240   H257 
C241   C242 
C242   C243 
C242   O246 
C243   C244 
C243   H256 
C244   C245 
C245   O251 
O246   C247 
C247   C248 
C247   H260 
C247   H261 
C248   C249 
C248   H264 
C248   H265 
C249   C250 
C249   H266 
C249   H267 
C250   H273 
C250   H274 
C250   H275 
O251   C252 
C252   C253 
C252   H258 
C252   H259 
C253   C254 
C253   H262 
C253   H263 
C254   C255 
C254   H268 
C254   H269 
C255   H270 
C255   H271 
C255   H272 
N276   C277 
N276   C278 
N276   C279 
C277   C283 
C277   H284 
C277   H285 
C278   C280 
C278   H281 
C278   H282 
C279   C286 
C279   H287 
C279   H288 
C280   H291 
C280   H292 
C280   N294 
C283   H289 
C283   H290 
C283   N294 
C286   H293 
C286   N294 
C286   H295 
C296   C297 
C296   C301 
C296   H313 
C297   C298 
C298   C299 
C298   O302 
C299   C300 
C299   H312 
C300   C301 
C301   O307 
O302   C303 
C303   C304 
C303   H316 
C303   H317 
C304   C305 
C304   H320 
C304   H321 
C305   C306 
C305   H322 
C305   H323 
C306   H329 
C306   H330 
C306   H331 
O307   C308 
C308   C309 
C308   H314 
C308   H315 
C309   C310 
C309   H318 
C309   H319 
C310   C311 
C310   H324 
C310   H325 
C311   H326 
C311   H327 
C311   H328 
C332   C333 
C332   C337 
C332   H349 
C333   C334 
C334   C335 
C334   O338 
C335   C336 
C335   H348 
C336   C337 
C337   O343 
O338   C339 
C339   C340 
C339   H352 
C339   H353 
C340   C341 
C340   H356 
C340   H357 
C341   C342 
C341   H358 
C341   H359 
C342   H365 
C342   H366 
C342   H367 
O343   C344 
C344   C345 
C344   H350 
C344   H351 
C345   C346 
C345   H354 
C345   H355 
C346   C347 
C346   H360 
C346   H361 
C347   H362 
C347   H363 
C347   H364 
N368   C369 
N368   C370 
N368   C371 
C369   C375 
C369   H376 
C369   H377 
C370   C372 
C370   H373 
C370   H374 
C371   C378 
C371   H379 
C371   H380 
C372   H383 
C372   H384 
C372   N386 
C375   H381 
C375   H382 
C375   N386 
C378   H385 
C378   N386 
C378   H387 
C388   C389 
C388   C393 
C388   H405 
C389   C390 
C390   C391 
C390   O394 
C391   C392 
C391   H404 
C392   C393 
C393   O399 
O394   C395 
C395   C396 
C395   H408 
C395   H409 
C396   C397 
C396   H412 
C396   H413 
C397   C398 
C397   H414 
C397   H415 
C398   H421 
C398   H422 
C398   H423 
O399   C400 
C400   C401 
C400   H406 
C400   H407 
C401   C402 
C401   H410 
C401   H411 
C402   C403 
C402   H416 
C402   H417 
C403   H418 
C403   H419 
C403   H420 
  
#END  
