data_
_symmetry_cell_setting           triclinic 
_symmetry_space_group_name_H-M   'P 1' 
_symmetry_Int_Tables_number      1 
loop_ 
_symmetry_equiv_pos_site_id 
_symmetry_equiv_pos_as_xyz 
1 x,y,z 
_cell_length_a             25.851656        
_cell_length_b             25.851657        
_cell_length_c             25.851657        
_cell_angle_alpha          90.000000        
_cell_angle_beta           90.000000        
_cell_angle_gamma          90.000000        
loop_  
_atom_site_label   
_atom_site_type_symbol  
_atom_site_fract_x  
_atom_site_fract_y  
_atom_site_fract_z 
 Zn0  Zn    -0.034343     -0.040923     -0.011097 
 Zn1  Zn    -0.031413      0.046772      0.074401 
 Zn2  Zn     0.054241     -0.041948      0.072163 
 Zn3  Zn     0.053162      0.044655     -0.014542 
 H4  H    -0.193936      0.003328      0.118797 
 H5  H     0.213824      0.018823     -0.051709 
 H6  H     0.095087     -0.199419      0.023676 
 H7  H    -0.067724      0.207163      0.032176 
 H8  H     0.019673      0.087213     -0.172269 
 H9  H     0.031114     -0.078056      0.232062 
 H10  H    -0.124262      0.044598     -0.125852 
 H11  H     0.148993     -0.047481      0.195045 
 H12  H    -0.153682     -0.159387      0.085440 
 H13  H     0.177591      0.136743     -0.020254 
 H14  H     0.026433     -0.152246     -0.103657 
 H15  H    -0.032046      0.163877      0.165139 
 H16  H    -0.136789     -0.019475     -0.144181 
 H17  H     0.163489      0.016961      0.211086 
 H18  H    -0.173657     -0.150793      0.020984 
 H19  H     0.194961      0.153714      0.043228 
 H20  H    -0.035503     -0.173231     -0.121845 
 H21  H     0.030259      0.183776      0.183467 
 H22  H    -0.220794      0.054971     -0.103549 
 H23  H     0.238906     -0.061386      0.162289 
 H24  H    -0.125477     -0.251418      0.062793 
 H25  H     0.146968      0.226726     -0.037836 
 H26  H     0.044764     -0.124674     -0.195338 
 H27  H    -0.050478      0.134319      0.255921 
 H28  H    -0.228692     -0.012079     -0.118310 
 H29  H     0.256481      0.002452      0.182281 
 H30  H    -0.138731     -0.236472     -0.003554 
 H31  H     0.168457      0.246682      0.024804 
 H32  H    -0.017362     -0.147892     -0.214446 
 H33  H     0.011633      0.157035      0.276008 
 H34  H    -0.238502      0.054509      0.298059 
 H35  H     0.140647     -0.021292     -0.215795 
 H36  H     0.291770     -0.120204      0.033721 
 H37  H    -0.232360      0.138923     -0.000387 
 H38  H     0.055218      0.246119     -0.126871 
 H39  H     0.007430     -0.247631      0.158683 
 H40  H    -0.196599      0.012794     -0.214602 
 H41  H     0.225379     -0.011665      0.278856 
 H42  H    -0.214866     -0.236977      0.091832 
 H43  H     0.263621      0.212698      0.010952 
 H44  H     0.003270     -0.240823     -0.179400 
 H45  H    -0.006247      0.251971      0.240569 
 H46  H    -0.159416      0.034681      0.246067 
 H47  H     0.162971     -0.109695     -0.246089 
 H48  H     0.288732     -0.155141      0.128050 
 H49  H    -0.265500      0.156694     -0.088155 
 H50  H     0.141631      0.278636     -0.149581 
 H51  H    -0.080117     -0.284581      0.171571 
 H52  H    -0.213838      0.102875     -0.175613 
 H53  H     0.248954     -0.098972      0.237207 
 H54  H    -0.240660     -0.149716      0.125702 
 H55  H     0.220958      0.232001     -0.077675 
 H56  H     0.091402     -0.197611     -0.193513 
 H57  H    -0.094338      0.207061      0.257569 
 C58  C    -0.185717      0.003538      0.035234 
 C59  C     0.206781      0.007951      0.030960 
 C60  C     0.011575     -0.194857      0.025974 
 C61  C     0.015456      0.199190      0.028716 
 C62  C     0.000665      0.005591     -0.165680 
 C63  C     0.020632      0.004778      0.226310 
 C64  C    -0.213832      0.003205      0.081520 
 C65  C     0.234337      0.011218     -0.015530 
 C66  C     0.058789     -0.220982      0.021936 
 C67  C    -0.030883      0.227129      0.027120 
 C68  C     0.011218      0.051259     -0.192848 
 C69  C     0.022761     -0.042275      0.253011 
 C70  C    -0.211078      0.003729     -0.012845 
 C71  C     0.232775     -0.001929      0.077631 
 C72  C    -0.035323     -0.222066      0.023733 
 C73  C     0.062758      0.224430      0.020034 
 C74  C    -0.008429     -0.040792     -0.192421 
 C75  C     0.010204      0.050901      0.252942 
 C76  C    -0.128079      0.000953      0.037490 
 C77  C     0.149098      0.004244      0.027879 
 C78  C     0.012214     -0.137116      0.026898 
 C79  C     0.012660      0.141322      0.029748 
 C80  C     0.002600      0.006429     -0.107944 
 C81  C     0.017561      0.002897      0.168513 
 C82  C    -0.154303      0.019391     -0.142508 
 C83  C     0.180371     -0.022130      0.208894 
 C84  C    -0.168497     -0.180217      0.051435 
 C85  C     0.192639      0.168846      0.003435 
 C86  C     0.004551     -0.169365     -0.135976 
 C87  C    -0.009784      0.180173      0.197665 
 H88  H    -0.189458      0.108782      0.220628 
 H89  H     0.208822     -0.099094     -0.176861 
 H90  H     0.214632     -0.161780      0.090614 
 H91  H    -0.200498      0.209207     -0.080850 
 H92  H     0.132141      0.212968     -0.200472 
 H93  H    -0.078720     -0.216938      0.221179 
 C94  C    -0.200663      0.017504     -0.105916 
 C95  C     0.224150     -0.022038      0.169260 
 C96  C    -0.128497     -0.219858      0.034273 
 C97  C     0.154224      0.213605      0.002048 
 C98  C     0.005077     -0.132247     -0.181801 
 C99  C    -0.010731      0.142271      0.242900 
 C100  C    -0.165856      0.073603      0.262170 
 C101  C     0.193901     -0.083795     -0.232419 
 C102  C     0.272388     -0.174839      0.094037 
 C103  C    -0.254004      0.189504     -0.063528 
 C104  C     0.115570      0.266698     -0.181075 
 C105  C    -0.058210     -0.270567      0.205316 
 C106  C    -0.166198      0.037466     -0.198015 
 C107  C     0.196633     -0.039068      0.263629 
 C108  C    -0.221017     -0.204237      0.065266 
 C109  C     0.247481      0.182996     -0.014867 
 C110  C     0.025958     -0.223623     -0.147814 
 C111  C    -0.030435      0.234490      0.210310 
 O112  O     0.010502      0.002432      0.030431 
 O113  O    -0.180334      0.004527     -0.056008 
 O114  O     0.203503     -0.002202      0.121840 
 O115  O    -0.079808     -0.193905      0.029686 
 O116  O     0.106742      0.195142      0.023707 
 O117  O    -0.017728     -0.084756     -0.164553 
 O118  O     0.011989      0.095395      0.224310 
 O119  O    -0.105300      0.027854      0.071768 
 O120  O     0.047220     -0.115435      0.053719 
 O121  O     0.031159      0.040459     -0.087018 
 O122  O    -0.106317     -0.028667      0.005101 
 O123  O    -0.021620     -0.114076     -0.000058 
 O124  O    -0.024690     -0.026564     -0.084108 
 O125  O     0.126480     -0.023574      0.061416 
 O126  O     0.046444      0.117151      0.003654 
 O127  O    -0.009222      0.037411      0.145992 
 O128  O     0.127144      0.028167     -0.009048 
 O129  O    -0.023778      0.120653      0.055600 
 O130  O     0.041200     -0.034079      0.146381 
 Zn131  Zn    -0.446588      0.041392      0.079589 
 Zn132  Zn    -0.445335     -0.043090     -0.008720 
 Zn133  Zn     0.466944      0.042562     -0.006985 
 Zn134  Zn     0.467457     -0.045368      0.078111 
 H135  H     0.306904     -0.017785      0.113474 
 H136  H    -0.285328      0.001811     -0.051817 
 H137  H    -0.412158     -0.201797     -0.009388 
 H138  H     0.428076      0.203703      0.031385 
 H139  H     0.494820      0.081598     -0.167136 
 H140  H     0.488363     -0.083139      0.237839 
 H141  H     0.372711      0.047322     -0.133091 
 H142  H    -0.357511     -0.044479      0.188832 
 H143  H     0.371379     -0.132619      0.086021 
 H144  H    -0.328725      0.129555     -0.011551 
 H145  H    -0.432495     -0.162936     -0.106157 
 H146  H     0.476623      0.152180      0.166704 
 H147  H     0.354765     -0.015934     -0.150391 
 H148  H    -0.347125      0.020413      0.205529 
 H149  H     0.381561     -0.144044      0.019887 
 H150  H    -0.308959      0.142906      0.051999 
 H151  H    -0.495843     -0.183617     -0.119436 
 H152  H    -0.460328      0.172696      0.180943 
 H153  H     0.283364      0.064715     -0.099256 
 H154  H    -0.262800     -0.054708      0.167244 
 H155  H     0.364549     -0.231717      0.099181 
 H156  H    -0.354522      0.223485     -0.023096 
 H157  H    -0.423113     -0.129127     -0.196477 
 H158  H     0.461048      0.131491      0.260592 
 H159  H     0.263294      0.001922     -0.120164 
 H160  H    -0.251583      0.010582      0.187100 
 H161  H     0.383450     -0.238173      0.033341 
 H162  H    -0.333854      0.236034      0.041645 
 H163  H    -0.486141     -0.153049     -0.212034 
 H164  H    -0.475859      0.154844      0.276085 
 H165  H     0.372431      0.026470      0.282327 
 H166  H    -0.341418     -0.031092     -0.207378 
 H167  H    -0.238733     -0.220544      0.030117 
 H168  H     0.272528      0.148812     -0.010358 
 H169  H    -0.458584      0.244524     -0.114065 
 H170  H     0.471088     -0.246390      0.178148 
 H171  H     0.291756      0.018749     -0.215519 
 H172  H    -0.290929     -0.006953      0.279748 
 H173  H     0.293388     -0.185086      0.013288 
 H174  H    -0.240924      0.203842      0.018119 
 H175  H    -0.462882     -0.247762     -0.183823 
 H176  H    -0.494400      0.246591      0.232794 
 H177  H     0.349792      0.114557      0.311242 
 H178  H    -0.322819     -0.115627     -0.245562 
 H179  H    -0.265377     -0.132811      0.064541 
 H180  H     0.239831      0.169678     -0.097212 
 H181  H    -0.372399      0.275458     -0.139923 
 H182  H     0.384217     -0.282061      0.191965 
 H183  H     0.279811      0.108195     -0.172544 
 H184  H    -0.265572     -0.096494      0.247662 
 H185  H     0.276851     -0.216596      0.101136 
 H186  H    -0.282402      0.220324     -0.070984 
 H187  H    -0.376844     -0.200734     -0.204189 
 H188  H     0.416303      0.205675      0.254030 
 C189  C     0.313911     -0.007097      0.030727 
 C190  C    -0.293338      0.002813      0.031652 
 C191  C    -0.484582     -0.197985      0.033441 
 C192  C    -0.488749      0.194029      0.034515 
 C193  C    -0.495047     -0.001475     -0.160651 
 C194  C    -0.493858     -0.001354      0.232072 
 C195  C     0.286404     -0.010104      0.077297 
 C196  C    -0.265231      0.002705     -0.014629 
 C197  C    -0.443862     -0.223333      0.008331 
 C198  C     0.465685      0.223053      0.031244 
 C199  C    -0.498766      0.045323     -0.187787 
 C200  C     0.494625     -0.046963      0.258811 
 C201  C     0.287943      0.003119     -0.015880 
 C202  C    -0.267949      0.002303      0.079646 
 C203  C     0.475729     -0.227533      0.055892 
 C204  C    -0.440126      0.218140      0.032830 
 C205  C    -0.485448     -0.047949     -0.187183 
 C206  C    -0.488106      0.045480      0.258895 
 C207  C    -0.351061      0.004132      0.029469 
 C208  C     0.371717     -0.005474      0.033296 
 C209  C    -0.492945      0.136718      0.039201 
 C210  C    -0.484717     -0.139912      0.034595 
 C211  C    -0.489881     -0.003575      0.174461 
 C212  C    -0.492712      0.000588     -0.102853 
 C213  C     0.339935      0.023905     -0.147117 
 C214  C    -0.328747     -0.018092      0.205970 
 C215  C     0.362160     -0.159748      0.054455 
 C216  C    -0.311899      0.160009      0.013030 
 C217  C    -0.457389     -0.178432     -0.137100 
 C218  C    -0.499918      0.171202      0.196761 
 H219  H     0.302091      0.103376      0.243191 
 H220  H    -0.265679     -0.110900     -0.184613 
 H221  H    -0.310695     -0.190690      0.105154 
 H222  H     0.302978      0.223759     -0.087759 
 H223  H    -0.382888      0.206378     -0.186403 
 H224  H     0.388973     -0.222618      0.250708 
 C225  C     0.296616      0.024969     -0.107028 
 C226  C    -0.280756     -0.016316      0.171653 
 C227  C     0.385085     -0.212488      0.067230 
 C228  C    -0.348732      0.206022      0.015339 
 C229  C    -0.461435     -0.138624     -0.180463 
 C230  C    -0.499639      0.137522      0.245308 
 C231  C     0.318597      0.088501      0.298469 
 C232  C    -0.289818     -0.090848     -0.235106 
 C233  C    -0.258697     -0.165835      0.090631 
 C234  C     0.250235      0.201817     -0.071277 
 C235  C    -0.398928      0.261439     -0.170167 
 C236  C     0.408047     -0.273346      0.226167 
 C237  C     0.323830      0.042807     -0.201239 
 C238  C    -0.319178     -0.033647      0.262554 
 C239  C     0.303389     -0.159383      0.045744 
 C240  C    -0.257145      0.173065     -0.006344 
 C241  C    -0.436900     -0.231679     -0.154209 
 C242  C     0.480668      0.226992      0.204492 
 O243  O    -0.489499     -0.001352      0.035417 
 O244  O     0.317004      0.003491     -0.060208 
 O245  O    -0.298930      0.001482      0.122511 
 O246  O     0.437414     -0.203890      0.083352 
 O247  O    -0.397260      0.187065      0.034248 
 O248  O    -0.483723     -0.092707     -0.158823 
 O249  O    -0.477730      0.088834      0.230398 
 O250  O    -0.372785     -0.020548     -0.007021 
 O251  O     0.470353      0.115060      0.014796 
 O252  O     0.482790     -0.037494      0.151803 
 O253  O    -0.373999      0.030299      0.064025 
 O254  O    -0.460198      0.114236      0.067911 
 O255  O    -0.459197      0.027758      0.152519 
 O256  O     0.394927      0.021923     -0.000165 
 O257  O     0.480361     -0.117646      0.060947 
 O258  O    -0.467195     -0.034665     -0.080151 
 O259  O     0.393256     -0.030857      0.069480 
 O260  O    -0.449590     -0.116978      0.008913 
 O261  O     0.484390      0.038131     -0.080837 
 Zn262  Zn     0.061581     -0.453303      0.057352 
 Zn263  Zn     0.062240      0.459782     -0.028981 
 Zn264  Zn    -0.027852     -0.456360     -0.026279 
 Zn265  Zn    -0.021406      0.457246      0.060327 
 H266  H    -0.179914      0.480750      0.098585 
 H267  H     0.224618      0.495875     -0.067096 
 H268  H     0.100192      0.297467      0.002976 
 H269  H    -0.071055     -0.297285      0.013144 
 H270  H    -0.003814     -0.418004     -0.186012 
 H271  H     0.010449      0.416069      0.218353 
 H272  H    -0.120960     -0.466090     -0.145278 
 H273  H     0.147672      0.458519      0.173951 
 H274  H    -0.144824      0.367284      0.062181 
 H275  H     0.178873     -0.338698     -0.042105 
 H276  H     0.065484      0.341708     -0.119011 
 H277  H     0.002400     -0.343296      0.148801 
 H278  H    -0.137217      0.471503     -0.166841 
 H279  H     0.160004     -0.477185      0.191840 
 H280  H    -0.164828      0.351087     -0.000786 
 H281  H     0.195529     -0.348511      0.023126 
 H282  H     0.001680      0.322717     -0.132624 
 H283  H     0.063062     -0.322021      0.170406 
 H284  H    -0.212547     -0.452523     -0.114094 
 H285  H     0.241829      0.445993      0.151481 
 H286  H    -0.112338      0.277352      0.076703 
 H287  H     0.152385     -0.246123     -0.019880 
 H288  H     0.078587      0.370255     -0.210349 
 H289  H    -0.020771     -0.370979      0.239517 
 H290  H    -0.229136      0.484427     -0.136575 
 H291  H     0.254849     -0.489288      0.171790 
 H292  H    -0.135982      0.258635      0.014401 
 H293  H     0.161822     -0.262111      0.046943 
 H294  H     0.016014      0.346177     -0.227483 
 H295  H     0.040331     -0.347757      0.261698 
 H296  H    -0.120499     -0.473514      0.267969 
 H297  H     0.167756      0.462400     -0.219893 
 H298  H     0.260851      0.359384      0.052728 
 H299  H    -0.281966     -0.383972      0.045064 
 H300  H     0.019349     -0.248306     -0.113723 
 H301  H    -0.025472      0.259068      0.175856 
 H302  H    -0.198505     -0.491455     -0.231751 
 H303  H     0.216139      0.492747      0.264827 
 H304  H    -0.230175      0.289035      0.034584 
 H305  H     0.242752     -0.263348     -0.045216 
 H306  H     0.033337      0.252583     -0.190828 
 H307  H     0.021566     -0.254034      0.224894 
 H308  H    -0.145866     -0.384770      0.296057 
 H309  H     0.181766      0.374518     -0.253836 
 H310  H     0.290043      0.337379      0.140940 
 H311  H    -0.193081     -0.387604      0.014045 
 H312  H     0.106791     -0.212012     -0.128760 
 H313  H    -0.111891      0.223950      0.194078 
 H314  H    -0.214805     -0.405332     -0.181889 
 H315  H     0.238277      0.402891      0.227461 
 H316  H    -0.182854      0.273386      0.121777 
 H317  H     0.266892     -0.352452     -0.077187 
 H318  H     0.121564      0.294696     -0.212542 
 H319  H    -0.066565     -0.297730      0.237004 
 C320  C    -0.176610      0.484719      0.015429 
 C321  C     0.214672     -0.498990      0.015968 
 C322  C     0.017081      0.305571      0.008252 
 C323  C     0.012465     -0.301943      0.012833 
 C324  C     0.006980      0.499268     -0.180074 
 C325  C     0.027036      0.498324      0.212096 
 C326  C    -0.202329      0.484287      0.062878 
 C327  C     0.243848      0.496954     -0.029437 
 C328  C     0.063407      0.277573      0.009157 
 C329  C    -0.034781     -0.275752      0.016099 
 C330  C     0.003016     -0.454029     -0.207084 
 C331  C     0.016212      0.452485      0.239013 
 C332  C    -0.204584      0.489770     -0.030789 
 C333  C     0.238962     -0.499097      0.064569 
 C334  C    -0.030265      0.280398      0.016899 
 C335  C     0.059344     -0.274720      0.015023 
 C336  C     0.016160      0.452808     -0.206481 
 C337  C     0.033131     -0.454937      0.239146 
 C338  C     0.157169     -0.494772      0.011734 
 C339  C    -0.119339      0.492258      0.017162 
 C340  C     0.011905     -0.359617      0.015833 
 C341  C     0.020348      0.363225      0.011548 
 C342  C     0.025789      0.497694      0.154201 
 C343  C     0.011300     -0.498253     -0.122527 
 C344  C    -0.152937     -0.489235     -0.161454 
 C345  C     0.177285      0.483811      0.191236 
 C346  C    -0.160385      0.335350      0.038588 
 C347  C     0.192730     -0.318666     -0.007229 
 C348  C     0.040758      0.325068     -0.149524 
 C349  C     0.022318     -0.326106      0.182317 
 H350  H    -0.187100     -0.398096      0.224362 
 H351  H     0.239040      0.380603     -0.193129 
 H352  H     0.223324      0.287854      0.129352 
 H353  H    -0.198334     -0.332843     -0.049171 
 H354  H     0.103340     -0.278771     -0.179402 
 H355  H    -0.106268      0.288676      0.246857 
 C356  C    -0.197152     -0.491321     -0.122389 
 C357  C     0.224858      0.484781      0.156281 
 C358  C    -0.121143      0.291245      0.037392 
 C359  C     0.153117     -0.278033      0.008390 
 C360  C     0.039464      0.361961     -0.195622 
 C361  C     0.019522     -0.363350      0.227971 
 C362  C    -0.175346     -0.411664      0.281172 
 C363  C     0.215785      0.398527     -0.244853 
 C364  C     0.278190      0.305921      0.114759 
 C365  C    -0.222750     -0.372893     -0.012700 
 C366  C     0.083759     -0.225261     -0.162061 
 C367  C    -0.087575      0.235840      0.226957 
 C368  C    -0.168144     -0.467133     -0.214573 
 C369  C     0.187442      0.466687      0.247340 
 C370  C    -0.214097      0.319750      0.059258 
 C371  C     0.246548     -0.296272     -0.018433 
 C372  C     0.059309      0.269927     -0.161975 
 C373  C     0.000019     -0.271922      0.192891 
 O374  O     0.018603     -0.498152      0.015402 
 O375  O    -0.176651      0.487147     -0.075704 
 O376  O     0.207525     -0.496540      0.107089 
 O377  O    -0.074333      0.309859      0.014269 
 O378  O     0.103771     -0.303092      0.009819 
 O379  O     0.016653      0.408819     -0.177024 
 O380  O     0.043122     -0.410823      0.211711 
 O381  O     0.135428      0.480042     -0.024442 
 O382  O    -0.024155     -0.382796     -0.008154 
 O383  O     0.000514      0.461389      0.132846 
 O384  O     0.134481     -0.465752      0.044101 
 O385  O     0.046728     -0.381001      0.042977 
 O386  O     0.050126     -0.466879      0.130569 
 O387  O    -0.098974     -0.479709     -0.017602 
 O388  O    -0.012855      0.385628      0.039872 
 O389  O     0.040389      0.468849     -0.100508 
 O390  O    -0.095652      0.471168      0.054735 
 O391  O     0.056778      0.385332     -0.013039 
 O392  O    -0.013633     -0.462293     -0.100212 
 Zn393  Zn     0.476271      0.453302     -0.020867 
 Zn394  Zn     0.474536     -0.461744      0.066364 
 Zn395  Zn    -0.436618      0.453291      0.065059 
 Zn396  Zn    -0.438299     -0.459577     -0.021473 
 H397  H     0.312210      0.499735      0.105344 
 H398  H    -0.280498     -0.499723     -0.064946 
 H399  H    -0.399587      0.291501      0.029650 
 H400  H     0.445644     -0.303370      0.071356 
 H401  H    -0.458823     -0.424264     -0.180919 
 H402  H    -0.467907      0.413153      0.225015 
 H403  H     0.388343     -0.465158     -0.136715 
 H404  H    -0.332955      0.444099      0.183093 
 H405  H     0.356266      0.365837      0.067321 
 H406  H    -0.302503     -0.303038     -0.039579 
 H407  H    -0.449492      0.340201     -0.111868 
 H408  H     0.463452     -0.341872      0.161609 
 H409  H     0.376143      0.470332     -0.153996 
 H410  H    -0.307827     -0.499618      0.212461 
 H411  H     0.339320      0.353550      0.002786 
 H412  H    -0.327301     -0.366779     -0.039606 
 H413  H     0.486934      0.319838     -0.123854 
 H414  H    -0.473960     -0.322083      0.179355 
 H415  H     0.293641     -0.453065     -0.114608 
 H416  H    -0.243509      0.428922      0.142501 
 H417  H     0.379149      0.270750      0.078866 
 H418  H    -0.349575     -0.285740      0.044278 
 H419  H    -0.437702      0.362065     -0.206017 
 H420  H     0.447455     -0.377115      0.249891 
 H421  H     0.281795      0.481336     -0.133091 
 H422  H    -0.225181      0.490944      0.167141 
 H423  H     0.362824      0.260244      0.012550 
 H424  H    -0.375791     -0.349230      0.041533 
 H425  H     0.498519      0.339170     -0.219212 
 H426  H    -0.491322     -0.352839      0.271249 
 H427  H     0.361150     -0.465239      0.262543 
 H428  H    -0.344514      0.467916     -0.226221 
 H429  H    -0.240522      0.352948      0.055252 
 H430  H     0.263027     -0.280601      0.017590 
 H431  H    -0.439196     -0.258309     -0.121027 
 H432  H     0.486006      0.248088      0.167857 
 H433  H     0.318548     -0.499975     -0.226350 
 H434  H    -0.267708      0.389403      0.227587 
 H435  H     0.267667      0.294974      0.032112 
 H436  H    -0.255974     -0.321052      0.044009 
 H437  H    -0.481245      0.246815     -0.178084 
 H438  H     0.489135     -0.258472      0.242475 
 H439  H     0.336397     -0.379507      0.296796 
 H440  H    -0.326638      0.379539     -0.257924 
 H441  H    -0.204294      0.334896      0.141039 
 H442  H     0.289278     -0.368510     -0.014904 
 H443  H    -0.354623     -0.220439     -0.143033 
 H444  H     0.398566      0.218465      0.189595 
 H445  H     0.296575     -0.410272     -0.190383 
 H446  H    -0.348411      0.410255      0.278406 
 H447  H     0.305029      0.273727      0.122186 
 H448  H    -0.235279     -0.406277     -0.035802 
 H449  H    -0.393363      0.287202     -0.203596 
 H450  H     0.400771     -0.304811      0.253801 
 C451  C     0.322263      0.494743      0.022223 
 C452  C    -0.284097      0.496700      0.018761 
 C453  C    -0.482720      0.301137      0.026522 
 C454  C    -0.482344     -0.306955      0.028013 
 C455  C    -0.478539      0.494386     -0.174374 
 C456  C    -0.477694      0.496251      0.219079 
 C457  C     0.293048      0.498558      0.067670 
 C458  C    -0.258508      0.496251     -0.029048 
 C459  C    -0.437182      0.272113      0.029715 
 C460  C     0.476821     -0.281606      0.052998 
 C461  C    -0.467581     -0.460121     -0.201540 
 C462  C    -0.475908      0.449101      0.245766 
 C463  C     0.297884      0.494386     -0.026320 
 C464  C    -0.256083      0.490359      0.064778 
 C465  C     0.468644      0.277020      0.027810 
 C466  C    -0.441921     -0.277361      0.006858 
 C467  C    -0.487500      0.447941     -0.201046 
 C468  C    -0.488883     -0.457653      0.245633 
 C469  C     0.379966      0.492720      0.025873 
 C470  C    -0.341914      0.498188      0.019604 
 C471  C    -0.478383      0.358406      0.021414 
 C472  C    -0.483932     -0.364892      0.024415 
 C473  C    -0.481024      0.496952     -0.116715 
 C474  C    -0.478460      0.494808      0.161173 
 C475  C     0.358671     -0.490750     -0.153523 
 C476  C    -0.297066      0.461805      0.197870 
 C477  C     0.340024      0.335981      0.041656 
 C478  C    -0.314830     -0.334932     -0.014168 
 C479  C    -0.474148      0.321621     -0.141231 
 C480  C     0.486402     -0.326923      0.194287 
 H481  H     0.283761     -0.390360      0.232961 
 H482  H    -0.276864      0.386899     -0.190989 
 H483  H    -0.264669      0.277222      0.135209 
 H484  H     0.337046     -0.312469     -0.055305 
 H485  H    -0.362669     -0.282492     -0.198602 
 H486  H     0.407291      0.286772      0.237605 
 C487  C     0.311288     -0.491664     -0.118408 
 C488  C    -0.258139      0.467214      0.154275 
 C489  C     0.376166      0.289335      0.040650 
 C490  C    -0.360708     -0.317181      0.017824 
 C491  C    -0.476375      0.355960     -0.189190 
 C492  C     0.486969     -0.367130      0.237486 
 C493  C     0.305756     -0.406825      0.285693 
 C494  C    -0.294053      0.403960     -0.245417 
 C495  C    -0.213969      0.301802      0.116046 
 C496  C     0.284135     -0.335940     -0.041896 
 C497  C    -0.380972     -0.231148     -0.174736 
 C498  C     0.423703      0.231848      0.221285 
 C499  C     0.347790     -0.474030     -0.209545 
 C500  C    -0.275312      0.428736      0.242044 
 C501  C     0.284120      0.324136      0.058335 
 C502  C    -0.268912     -0.352947      0.018923 
 C503  C    -0.455034      0.266032     -0.150667 
 C504  C     0.465492     -0.273550      0.210478 
 O505  O    -0.480704      0.496816      0.022561 
 O506  O     0.329188      0.491399     -0.068866 
 O507  O    -0.282193      0.491524      0.110802 
 O508  O     0.425999      0.308354      0.025679 
 O509  O    -0.400049     -0.298897     -0.016819 
 O510  O    -0.497397      0.404485     -0.172612 
 O511  O    -0.488596     -0.412691      0.217529 
 O512  O     0.401277     -0.482180      0.062357 
 O513  O    -0.441507      0.380223      0.045433 
 O514  O    -0.454187     -0.468155     -0.094948 
 O515  O     0.403399      0.465581     -0.007562 
 O516  O     0.488733      0.380723     -0.007242 
 O517  O     0.489855      0.464856     -0.093813 
 O518  O    -0.364467      0.472450      0.054814 
 O519  O    -0.450541     -0.387085     -0.003938 
 O520  O     0.494702     -0.471047      0.138265 
 O521  O    -0.364152     -0.475381     -0.015366 
 O522  O     0.481016     -0.387732      0.050258 
 O523  O    -0.453053      0.458867      0.139218 
 Zn524  Zn     0.047711      0.045414     -0.427188 
 Zn525  Zn     0.049445     -0.039540      0.485581 
 Zn526  Zn    -0.039400      0.045425      0.486886 
 Zn527  Zn    -0.037719     -0.041707     -0.426582 
 H528  H    -0.195520     -0.001561     -0.383109 
 H529  H     0.211772     -0.001020      0.446602 
 H530  H     0.078338     -0.197914      0.480589 
 H531  H    -0.076431      0.207214     -0.477705 
 H532  H    -0.008111      0.085563      0.326930 
 H533  H    -0.017196     -0.077021     -0.267135 
 H534  H    -0.143063      0.054617      0.368852 
 H535  H     0.135639     -0.036126     -0.311339 
 H536  H    -0.173515     -0.198247     -0.408475 
 H537  H     0.167716      0.132879      0.484624 
 H538  H     0.060530     -0.159412      0.390337 
 H539  H    -0.026526      0.158515     -0.336186 
 H540  H    -0.168192     -0.001666      0.339485 
 H541  H     0.147839      0.028384     -0.294059 
 H542  H    -0.148717     -0.134505     -0.408448 
 H543  H     0.184662      0.145166     -0.450841 
 H544  H    -0.002059     -0.179201      0.372591 
 H545  H     0.037048      0.178878     -0.324200 
 H546  H    -0.232509      0.069794      0.409444 
 H547  H     0.230341     -0.048219     -0.333447 
 H548  H    -0.126443     -0.215544     -0.492333 
 H549  H     0.144832      0.227966      0.473080 
 H550  H     0.076527     -0.124169      0.302054 
 H551  H    -0.038316      0.136651     -0.242038 
 H552  H    -0.250837      0.007771      0.384804 
 H553  H     0.242187      0.017380     -0.314963 
 H554  H    -0.100227     -0.152054     -0.489588 
 H555  H     0.161158      0.238472     -0.460605 
 H556  H     0.015304     -0.148445      0.280696 
 H557  H     0.025463      0.159546     -0.228842 
 H558  H    -0.131505      0.030800     -0.221833 
 H559  H     0.162832     -0.036045      0.289403 
 H560  H     0.260955     -0.220683     -0.465644 
 H561  H    -0.235496      0.145768      0.496694 
 H562  H     0.037975      0.250627      0.384088 
 H563  H    -0.036822     -0.242975     -0.327028 
 H564  H    -0.208310      0.109313      0.324358 
 H565  H     0.205434     -0.001309     -0.221704 
 H566  H    -0.220044     -0.180232     -0.492063 
 H567  H     0.256315      0.203742     -0.480166 
 H568  H     0.034847     -0.242812      0.309471 
 H569  H     0.005227      0.251901     -0.269970 
 H570  H    -0.149380      0.119177     -0.190131 
 H571  H     0.187584     -0.121778      0.255149 
 H572  H     0.234703     -0.132774     -0.433151 
 H573  H    -0.271724      0.163820      0.410907 
 H574  H     0.125416      0.280251      0.362351 
 H575  H    -0.121395     -0.280846     -0.305022 
 H576  H    -0.127607      0.088460      0.273539 
 H577  H     0.227406     -0.091013     -0.257671 
 H578  H    -0.240739     -0.095007     -0.412253 
 H579  H     0.218953      0.224989      0.429759 
 H580  H     0.123211     -0.196473      0.298144 
 H581  H    -0.082655      0.211514     -0.244459 
 C582  C    -0.191921      0.002016     -0.466815 
 C583  C     0.201719      0.003973     -0.470278 
 C584  C     0.006326     -0.194329     -0.476067 
 C585  C     0.006702      0.197578     -0.474577 
 C586  C     0.001676      0.002465      0.332867 
 C587  C     0.002521      0.004330     -0.273680 
 C588  C    -0.217510      0.002465     -0.419007 
 C589  C     0.230934      0.000158      0.484276 
 C590  C     0.047161     -0.219679      0.498947 
 C591  C    -0.038836      0.226603     -0.477770 
 C592  C    -0.000111      0.049615      0.306180 
 C593  C    -0.008437     -0.041163     -0.246514 
 C594  C    -0.219936      0.008357      0.487167 
 C595  C     0.226098      0.004330     -0.421734 
 C596  C    -0.034097     -0.223923     -0.454912 
 C597  C     0.055338      0.221696     -0.475864 
 C598  C     0.012865     -0.043631      0.306313 
 C599  C     0.011482      0.050775     -0.247008 
 C600  C     0.144016      0.005996     -0.473928 
 C601  C    -0.134104      0.000527     -0.467659 
 C602  C     0.002365      0.140310     -0.469469 
 C603  C     0.007914     -0.136392     -0.472470 
 C604  C     0.005006      0.001763     -0.331340 
 C605  C     0.002442      0.003908      0.390773 
 C606  C    -0.178952      0.036911      0.354076 
 C607  C     0.165311     -0.010534     -0.294532 
 C608  C    -0.161188     -0.166353     -0.433887 
 C609  C     0.183958      0.162735     -0.489710 
 C610  C     0.037580     -0.174361      0.357659 
 C611  C    -0.001871      0.177095     -0.306823 
 H612  H    -0.199154      0.111817     -0.257065 
 H613  H     0.240221     -0.110924      0.318985 
 H614  H     0.186936     -0.188815     -0.392750 
 H615  H    -0.211349      0.221494      0.416736 
 H616  H     0.116691      0.211944      0.314341 
 H617  H    -0.113349     -0.218792     -0.249453 
 C618  C    -0.217879      0.031502      0.397670 
 C619  C     0.212693     -0.009621     -0.329647 
 C620  C    -0.115310     -0.184103     -0.465879 
 C621  C     0.147816      0.209381     -0.488704 
 C622  C     0.037013     -0.134154      0.314460 
 C623  C     0.000357      0.142756     -0.258864 
 C624  C    -0.181965      0.094756     -0.202637 
 C625  C     0.218225     -0.094459      0.266252 
 C626  C     0.239847     -0.165344     -0.406159 
 C627  C    -0.262049      0.196914      0.435899 
 C628  C     0.100279      0.266868      0.330660 
 C629  C    -0.095046     -0.270137     -0.273319 
 C630  C    -0.200706      0.069980      0.309901 
 C631  C     0.176192     -0.027254     -0.238510 
 C632  C    -0.207106     -0.148337     -0.466977 
 C633  C     0.239862      0.174579      0.493611 
 C634  C     0.058490     -0.227735      0.341467 
 C635  C    -0.020984      0.232684     -0.297388 
 O636  O     0.004686      0.001899     -0.470615 
 O637  O    -0.193825      0.007192      0.441143 
 O638  O     0.194794      0.007316     -0.379188 
 O639  O    -0.075969     -0.202387     -0.431236 
 O640  O     0.097983      0.190362     -0.473734 
 O641  O     0.012578     -0.088593      0.334417 
 O642  O     0.021379      0.094230     -0.275442 
 O643  O     0.122704     -0.019104      0.489589 
 O644  O    -0.034511      0.118493     -0.493487 
 O645  O    -0.021831     -0.033129     -0.353106 
 O646  O     0.120583      0.033135     -0.440492 
 O647  O     0.035249      0.117992     -0.440813 
 O648  O     0.034127      0.033859     -0.354241 
 O649  O    -0.111551      0.026266      0.497132 
 O650  O    -0.025477     -0.114199     -0.444117 
 O651  O     0.029280     -0.030237      0.413680 
 O652  O    -0.111866     -0.025903     -0.432688 
 O653  O     0.042966     -0.113552     -0.498313 
 O654  O    -0.022965      0.039849      0.412728 
 Zn655  Zn     0.462401     -0.047981      0.494593 
 Zn656  Zn     0.461741      0.038934     -0.419073 
 Zn657  Zn    -0.448166     -0.044924     -0.421775 
 Zn658  Zn    -0.454612      0.041470      0.491619 
 H659  H     0.299363      0.002841     -0.380959 
 H660  H    -0.296104      0.017966      0.453361 
 H661  H    -0.404964     -0.203999     -0.461199 
 H662  H     0.423790      0.201249     -0.451031 
 H663  H    -0.486467      0.082647      0.333592 
 H664  H    -0.472204     -0.083281     -0.262043 
 H665  H     0.376310      0.040197      0.377995 
 H666  H    -0.355058     -0.035194     -0.302777 
 H667  H     0.345109     -0.162586     -0.405949 
 H668  H    -0.331194      0.131432      0.489765 
 H669  H    -0.478418     -0.157988      0.403145 
 H670  H     0.458497      0.157008     -0.329044 
 H671  H     0.363977     -0.024099      0.360106 
 H672  H    -0.338801      0.027213     -0.281213 
 H673  H     0.328453     -0.152773     -0.471181 
 H674  H    -0.311190      0.147628     -0.447268 
 H675  H     0.460920     -0.179264      0.381539 
 H676  H    -0.477698      0.175998     -0.315431 
 H677  H     0.282153      0.052723      0.400465 
 H678  H    -0.263471     -0.048762     -0.333961 
 H679  H     0.371597     -0.255161     -0.428175 
 H680  H    -0.363680      0.221364      0.475242 
 H681  H    -0.455247     -0.130305      0.312428 
 H682  H     0.445395      0.128461     -0.237706 
 H683  H     0.269133     -0.011996      0.380156 
 H684  H    -0.246882      0.014288     -0.311480 
 H685  H     0.362160     -0.239173     -0.494997 
 H686  H    -0.340036      0.240081     -0.462456 
 H687  H     0.483651     -0.153527      0.290248 
 H688  H    -0.492032      0.152539     -0.220571 
 H689  H     0.356226      0.036315     -0.228161 
 H690  H    -0.355519     -0.027771      0.283976 
 H691  H    -0.194052     -0.117312     -0.493119 
 H692  H     0.263131      0.139332      0.499218 
 H693  H    -0.450546      0.239648      0.376089 
 H694  H    -0.495368     -0.252979     -0.334331 
 H695  H     0.307843      0.005969      0.287119 
 H696  H    -0.277513     -0.009829     -0.216304 
 H697  H     0.281230     -0.237936     -0.402839 
 H698  H    -0.245843      0.209681     -0.482639 
 H699  H    -0.497584     -0.247250      0.327051 
 H700  H     0.490645      0.246133     -0.257227 
 H701  H     0.342215      0.124198     -0.194218 
 H702  H    -0.330152     -0.116515      0.255888 
 H703  H    -0.282937     -0.113681     -0.462099 
 H704  H     0.233939      0.161336      0.411006 
 H705  H    -0.364127      0.274766      0.357868 
 H706  H     0.417191     -0.289272     -0.319294 
 H707  H     0.285705      0.095825      0.324485 
 H708  H    -0.261213     -0.095953     -0.266165 
 H709  H     0.257090     -0.148832     -0.370867 
 H710  H    -0.293164      0.225330      0.430169 
 H711  H    -0.409453     -0.203554      0.314942 
 H712  H     0.402418      0.204020     -0.235512 
 C713  C     0.309310     -0.002295     -0.464022 
 C714  C    -0.299408      0.013997     -0.463483 
 C715  C    -0.488483     -0.199341     -0.460887 
 C716  C    -0.493100      0.193145     -0.456306 
 C717  C     0.496946      0.000392      0.339850 
 C718  C    -0.482998     -0.000552     -0.267981 
 C719  C     0.280134      0.001762     -0.418617 
 C720  C    -0.273689      0.014428      0.489068 
 C721  C    -0.441237     -0.225532     -0.464153 
 C722  C     0.460575      0.221143     -0.457211 
 C723  C    -0.492230      0.046231      0.312933 
 C724  C    -0.479034     -0.047255     -0.240971 
 C725  C     0.285020     -0.002187      0.487376 
 C726  C    -0.271434      0.008946     -0.417266 
 C727  C     0.464638     -0.226564     -0.463077 
 C728  C    -0.445753      0.218318     -0.464953 
 C729  C     0.490851     -0.046347      0.312799 
 C730  C    -0.492178      0.045908     -0.241573 
 C731  C     0.366813     -0.006512     -0.459789 
 C732  C    -0.356679      0.006458     -0.465216 
 C733  C    -0.487923     -0.141667     -0.463888 
 C734  C    -0.496366      0.135491     -0.459603 
 C735  C     0.498193      0.001022      0.397745 
 C736  C    -0.487318     -0.003031     -0.325527 
 C737  C     0.346697      0.014905      0.360710 
 C738  C    -0.323081     -0.012049     -0.286601 
 C739  C     0.331252     -0.182618     -0.440826 
 C740  C    -0.315633      0.163366     -0.486642 
 C741  C    -0.498336     -0.175178      0.369628 
 C742  C     0.483224      0.173648     -0.298530 
 H743  H     0.284942      0.118113     -0.254925 
 H744  H    -0.288918     -0.103188      0.327583 
 H745  H    -0.277684     -0.168441     -0.398883 
 H746  H     0.300658      0.210862      0.422593 
 H747  H    -0.369751      0.210040      0.305089 
 H748  H     0.420642     -0.222514     -0.268653 
 C749  C     0.299124      0.013934      0.395665 
 C750  C    -0.278867     -0.009963     -0.325666 
 C751  C     0.370865     -0.223251     -0.456445 
 C752  C    -0.354875      0.207471     -0.485447 
 C753  C    -0.495540     -0.137934      0.323975 
 C754  C     0.484518      0.136755     -0.252433 
 C755  C     0.308197      0.100189     -0.203201 
 C756  C    -0.300672     -0.089620      0.270774 
 C757  C    -0.253268     -0.128391     -0.435354 
 C758  C     0.245792      0.192795      0.437187 
 C759  C    -0.388443      0.262876      0.324989 
 C760  C     0.440223     -0.276023     -0.285993 
 C761  C     0.336540      0.032029      0.304606 
 C762  C    -0.307875     -0.034151     -0.233482 
 C763  C     0.277434     -0.205012     -0.429621 
 C764  C    -0.261921      0.178966      0.492687 
 C765  C    -0.476037     -0.229362      0.359054 
 C766  C     0.464672      0.228789     -0.286080 
 O767  O    -0.494621     -0.003132     -0.463456 
 O768  O     0.316456     -0.004744      0.444856 
 O769  O    -0.299367      0.011569     -0.372350 
 O770  O     0.420211     -0.198192     -0.457873 
 O771  O    -0.401685      0.188857     -0.462323 
 O772  O     0.480860     -0.090461      0.340234 
 O773  O    -0.492671      0.089897     -0.271030 
 O774  O     0.388554      0.018674     -0.423613 
 O775  O    -0.451863     -0.118489     -0.439900 
 O776  O    -0.476532      0.037327      0.419100 
 O777  O     0.389500     -0.035533     -0.492155 
 O778  O     0.477254     -0.120283     -0.491032 
 O779  O     0.473856     -0.034405      0.421377 
 O780  O    -0.377044     -0.021575     -0.430452 
 O781  O    -0.463163      0.113088     -0.487927 
 O782  O     0.483593      0.029867     -0.347546 
 O783  O    -0.380366      0.027548      0.497211 
 O784  O     0.467204      0.113384     -0.435015 
 O785  O    -0.462386     -0.038991     -0.347843 
 Zn786  Zn    -0.029430      0.457324      0.472356 
 Zn787  Zn    -0.030683     -0.458194     -0.439335 
 Zn788  Zn     0.057038      0.456154     -0.441069 
 Zn789  Zn     0.056525     -0.455916      0.473834 
 H790  H    -0.190690      0.496904     -0.396238 
 H791  H     0.217078     -0.483499      0.438471 
 H792  H     0.095906      0.295013     -0.479440 
 H793  H    -0.063860     -0.299487     -0.438667 
 H794  H     0.035619     -0.418146      0.314106 
 H795  H     0.029162      0.417118     -0.280918 
 H796  H    -0.118507     -0.456805      0.363114 
 H797  H     0.151270      0.451394     -0.314964 
 H798  H    -0.147294      0.369161     -0.436503 
 H799  H     0.152603     -0.368665      0.465924 
 H800  H     0.047359      0.346536      0.385242 
 H801  H    -0.043523     -0.338348     -0.341897 
 H802  H    -0.128893      0.478302      0.346417 
 H803  H     0.169217     -0.485350     -0.297663 
 H804  H    -0.167059      0.355809      0.499947 
 H805  H     0.142421     -0.357240     -0.467941 
 H806  H    -0.015690      0.326020      0.371003 
 H807  H     0.019825     -0.317667     -0.328619 
 H808  H    -0.213218     -0.446576      0.384701 
 H809  H     0.240617      0.434001     -0.348798 
 H810  H    -0.121496      0.275230     -0.424958 
 H811  H     0.159433     -0.269567      0.452765 
 H812  H     0.062934      0.367224      0.291353 
 H813  H    -0.052906     -0.372157     -0.251577 
 H814  H    -0.224435      0.488134      0.364845 
 H815  H     0.260688      0.496794     -0.327891 
 H816  H    -0.142164      0.262682     -0.489699 
 H817  H     0.140532     -0.263111     -0.481396 
 H818  H    -0.000159      0.343872      0.275861 
 H819  H     0.010122     -0.348235     -0.236020 
 H820  H    -0.134600     -0.470193     -0.240677 
 H821  H     0.151551      0.472245      0.269618 
 H822  H     0.251454      0.349904     -0.437696 
 H823  H    -0.237285     -0.280740     -0.478172 
 H824  H     0.052894     -0.254894      0.373798 
 H825  H    -0.017434      0.254192     -0.333990 
 H826  H    -0.185090     -0.494332      0.272198 
 H827  H     0.232225      0.479966     -0.232536 
 H828  H    -0.235094      0.294874     -0.466174 
 H829  H     0.230594     -0.316198     -0.461342 
 H830  H     0.018381      0.252125      0.319152 
 H831  H    -0.013136     -0.253522     -0.264231 
 H832  H    -0.153199     -0.385658     -0.202492 
 H833  H     0.174190      0.384159      0.240703 
 H834  H     0.284151      0.329038     -0.350843 
 H835  H    -0.210642     -0.368473      0.487404 
 H836  H     0.139765     -0.219223      0.359980 
 H837  H    -0.103619      0.223258     -0.308132 
 H838  H    -0.210446     -0.404790      0.304283 
 H839  H     0.244171      0.390521     -0.275511 
 H840  H    -0.193616      0.278392     -0.377071 
 H841  H     0.247131     -0.284688      0.450809 
 H842  H     0.107679      0.293041      0.297916 
 H843  H    -0.099174     -0.300550     -0.243865 
 C844  C    -0.182680      0.495902     -0.479706 
 C845  C     0.210071     -0.494187     -0.478781 
 C846  C     0.012731      0.304687     -0.482570 
 C847  C     0.008564     -0.303299     -0.481495 
 C848  C     0.017839     -0.499930      0.319873 
 C849  C     0.019029     -0.499810     -0.287403 
 C850  C    -0.210787      0.496011     -0.433425 
 C851  C     0.237578     -0.491180      0.474649 
 C852  C     0.058297      0.275663     -0.479299 
 C853  C    -0.032156     -0.277951     -0.456386 
 C854  C     0.029357     -0.454321      0.293135 
 C855  C     0.022748      0.453393     -0.260268 
 C856  C    -0.208069      0.496413      0.472299 
 C857  C     0.236039      0.495597     -0.432174 
 C858  C    -0.035893      0.280576     -0.480885 
 C859  C     0.048253     -0.273751      0.496053 
 C860  C     0.012088      0.453235      0.293051 
 C861  C     0.009430     -0.453336     -0.260872 
 C862  C    -0.124957      0.494584     -0.477524 
 C863  C     0.152265     -0.495811     -0.481350 
 C864  C     0.016927      0.361998     -0.487255 
 C865  C     0.008699     -0.361372     -0.482649 
 C866  C     0.013863     -0.497709      0.377484 
 C867  C     0.016694      0.498128     -0.345202 
 C868  C    -0.147272     -0.483192      0.345975 
 C869  C     0.184047      0.474811     -0.300938 
 C870  C    -0.164119      0.338707     -0.461084 
 C871  C     0.161822     -0.341536      0.497490 
 C872  C     0.023900      0.327514      0.355184 
 C873  C    -0.018629     -0.322852     -0.310954 
 H874  H    -0.210339     -0.390384     -0.263441 
 H875  H     0.221891      0.395339      0.308754 
 H876  H     0.221004      0.274957     -0.360295 
 H877  H    -0.165323     -0.310595      0.446792 
 H878  H     0.135008     -0.278666      0.301238 
 H879  H    -0.093130      0.292338     -0.261651 
 C880  C    -0.195263     -0.484969      0.380293 
 C881  C     0.227366      0.473747     -0.341026 
 C882  C    -0.127286      0.292693     -0.463393 
 C883  C     0.138897     -0.288796      0.484715 
 C884  C     0.023621      0.361194      0.306637 
 C885  C    -0.014583     -0.362661     -0.267592 
 C886  C    -0.186200     -0.410437     -0.212949 
 C887  C     0.205385      0.410215      0.253477 
 C888  C     0.273747      0.296899     -0.376777 
 C889  C    -0.217321     -0.335449      0.461315 
 C890  C     0.115935     -0.227938      0.325779 
 C891  C    -0.077090      0.237277     -0.277887 
 C892  C    -0.156840     -0.467637      0.289391 
 C893  C     0.200152      0.455909     -0.246815 
 C894  C    -0.218873      0.325650     -0.441710 
 C895  C     0.220593     -0.341901     -0.493799 
 C896  C     0.043314      0.271724      0.347454 
 C897  C    -0.039118     -0.269605     -0.293845 
 O898  O     0.013481     -0.499933     -0.483471 
 O899  O    -0.177088      0.497233      0.429435 
 O900  O     0.206978      0.495225     -0.387847 
 O901  O    -0.078758      0.311651     -0.482303 
 O902  O     0.086568     -0.297394      0.468593 
 O903  O     0.001712      0.409882      0.321548 
 O904  O     0.007704     -0.408577     -0.289231 
 O905  O    -0.103233     -0.480736     -0.441033 
 O906  O     0.053629      0.383655     -0.462850 
 O907  O     0.041192     -0.463790      0.400143 
 O908  O    -0.102019      0.468417      0.487920 
 O909  O    -0.015820      0.384480      0.484035 
 O910  O    -0.016821      0.470958      0.399427 
 O911  O     0.129055      0.476793     -0.447890 
 O912  O     0.043621     -0.383638      0.490999 
 O913  O    -0.008824     -0.466619     -0.367903 
 O914  O     0.130726     -0.470427      0.482466 
 O915  O    -0.026428     -0.384306     -0.456967 
 O916  O     0.039592      0.460584     -0.367217 
 Zn917  Zn    -0.441675     -0.460362     -0.436958 
 Zn918  Zn    -0.444605      0.451944      0.477545 
 Zn919  Zn     0.469741     -0.459337      0.479782 
 Zn920  Zn     0.470820      0.454060     -0.433513 
 H921  H     0.310158      0.479893     -0.396345 
 H922  H    -0.282082      0.495387      0.433149 
 H923  H    -0.408294      0.291552     -0.480231 
 H924  H     0.428895     -0.301865     -0.471730 
 H925  H     0.492868     -0.423228      0.319883 
 H926  H    -0.495692      0.411503     -0.275785 
 H927  H     0.374988     -0.453804      0.356900 
 H928  H    -0.351756      0.454118     -0.322202 
 H929  H     0.346390      0.361973     -0.427800 
 H930  H    -0.322336     -0.341898      0.466506 
 H931  H    -0.443972      0.334838      0.386807 
 H932  H     0.497549     -0.349038     -0.344397 
 H933  H     0.360492      0.481755      0.340860 
 H934  H    -0.339229     -0.481810     -0.303874 
 H935  H     0.329021      0.345002     -0.491283 
 H936  H    -0.302361     -0.350492     -0.469038 
 H937  H     0.493723      0.314940      0.368478 
 H938  H    -0.440515     -0.328053     -0.326210 
 H939  H     0.285075     -0.439899      0.389657 
 H940  H    -0.255224      0.443744     -0.344505 
 H941  H     0.377014      0.271990     -0.410218 
 H942  H    -0.350541     -0.249866      0.489152 
 H943  H    -0.425540      0.364396      0.296025 
 H944  H     0.479218     -0.376610     -0.252716 
 H945  H     0.267501      0.496264      0.369665 
 H946  H    -0.247326     -0.489205     -0.329744 
 H947  H     0.355525      0.252034     -0.472859 
 H948  H    -0.337288     -0.264812     -0.444501 
 H949  H    -0.487651      0.341681      0.275937 
 H950  H    -0.458656     -0.353392     -0.233608 
 H951  H     0.383335     -0.479992     -0.232260 
 H952  H    -0.237516      0.444207      0.253886 
 H953  H    -0.243659      0.359793     -0.447668 
 H954  H     0.232211     -0.381080     -0.481775 
 H955  H    -0.483448     -0.253653      0.393262 
 H956  H     0.468763      0.252597     -0.321184 
 H957  H     0.298603     -0.489619      0.273089 
 H958  H    -0.279420      0.485922     -0.233452 
 H959  H     0.260361      0.286018     -0.459006 
 H960  H    -0.261152     -0.264307      0.460113 
 H961  H    -0.469772      0.246745      0.311376 
 H962  H    -0.479288     -0.260461     -0.268655 
 H963  H     0.361011     -0.391589     -0.201966 
 H964  H    -0.316602      0.464035      0.305879 
 H965  H    -0.210519      0.342022     -0.359900 
 H966  H     0.235250     -0.346144      0.423896 
 H967  H    -0.395901     -0.216703      0.380375 
 H968  H     0.382351      0.220080     -0.298474 
 H969  H     0.275028     -0.402312      0.314739 
 H970  H    -0.262181      0.395841     -0.272442 
 H971  H     0.303024      0.266714     -0.370379 
 H972  H    -0.235359     -0.351568      0.426243 
 H973  H    -0.381680      0.291655      0.294377 
 H974  H     0.432580     -0.303673     -0.254542 
 C975  C     0.317201      0.490765     -0.479015 
 C976  C    -0.290302      0.495178     -0.483289 
 C977  C    -0.491474      0.299526     -0.476771 
 C978  C    -0.487593     -0.306427     -0.474029 
 C979  C    -0.496650      0.493938      0.325635 
 C980  C    -0.476683      0.493124     -0.282374 
 C981  C     0.289645      0.487498     -0.432524 
 C982  C    -0.262186      0.495511      0.470426 
 C983  C    -0.445135      0.271587     -0.475174 
 C984  C     0.465193     -0.280302     -0.469991 
 C985  C    -0.498779     -0.459009      0.298935 
 C986  C    -0.487236      0.447457     -0.255206 
 C987  C     0.291207     -0.499356      0.474315 
 C988  C    -0.264940      0.494987     -0.435209 
 C989  C     0.461224      0.274286     -0.468088 
 C990  C    -0.440695     -0.279218     -0.471788 
 C991  C    -0.486223      0.447815      0.299004 
 C992  C    -0.467589     -0.460492     -0.255633 
 C993  C    -0.347939      0.497763     -0.485545 
 C994  C     0.374884      0.494472     -0.475933 
 C995  C    -0.488232     -0.364168     -0.474952 
 C996  C    -0.488678      0.357394     -0.477803 
 C997  C    -0.478618      0.492286     -0.340111 
 C998  C    -0.493580      0.495819      0.383432 
 C999  C     0.343611     -0.479155      0.343052 
 C1000  C    -0.321715      0.479324     -0.305546 
 C1001  C     0.331342      0.329870     -0.451489 
 C1002  C    -0.307521     -0.321067     -0.499489 
 C1003  C    -0.466235      0.318542      0.354281 
 C1004  C    -0.480569     -0.331920     -0.312078 
 H1005  H     0.315160     -0.402190     -0.271193 
 H1006  H    -0.286561      0.389934      0.331318 
 H1007  H    -0.275520      0.289509     -0.367204 
 H1008  H     0.309349     -0.339504      0.461332 
 H1009  H    -0.397298     -0.284346      0.330767 
 H1010  H     0.391841      0.285748     -0.247582 
 C1011  C     0.299832     -0.479246      0.382685 
 C1012  C    -0.275355      0.481212     -0.342139 
 C1013  C     0.369757      0.285111     -0.450103 
 C1014  C    -0.347521     -0.281426     -0.482328 
 C1015  C    -0.465287      0.356445      0.309045 
 C1016  C    -0.481096     -0.369037     -0.266253 
 C1017  C     0.330081     -0.417490     -0.215636 
 C1018  C    -0.310162      0.425112      0.289776 
 C1019  C    -0.222014      0.309212     -0.384527 
 C1020  C     0.251594     -0.326446      0.457909 
 C1021  C    -0.417808     -0.230718      0.346630 
 C1022  C     0.408412      0.232018     -0.266979 
 C1023  C     0.327349     -0.462217      0.288317 
 C1024  C    -0.309820      0.461250     -0.250039 
 C1025  C     0.276501      0.315719     -0.433187 
 C1026  C    -0.255001     -0.297047      0.486680 
 C1027  C    -0.445584      0.264225      0.341635 
 C1028  C     0.498024     -0.277661     -0.300241 
 O1029  O    -0.486520      0.496284     -0.478485 
 O1030  O     0.320479     -0.499082      0.430105 
 O1031  O    -0.295684      0.494189     -0.392046 
 O1032  O     0.417239      0.303574     -0.471762 
 O1033  O    -0.396210     -0.307379     -0.477740 
 O1034  O    -0.488007      0.403321      0.327636 
 O1035  O    -0.458290     -0.416528     -0.283502 
 O1036  O    -0.370718      0.470862      0.480178 
 O1037  O     0.476762     -0.385850      0.498227 
 O1038  O     0.492822      0.458256     -0.361037 
 O1039  O    -0.369701     -0.472617     -0.453155 
 O1040  O    -0.454398     -0.387208     -0.447997 
 O1041  O    -0.451328     -0.474721     -0.363947 
 O1042  O     0.397501     -0.477710      0.490529 
 O1043  O     0.477538      0.381565     -0.451708 
 O1044  O    -0.466796      0.461305      0.405953 
 O1045  O     0.396838      0.470549     -0.439007 
 O1046  O    -0.452240      0.378063      0.496346 
 O1047  O     0.482782     -0.467205      0.405564 
loop_  
_geom_bond_atom_site_label_1  
_geom_bond_atom_site_label_2  
Zn0   O112 
Zn0   O122 
Zn0   O123 
Zn0   O124 
Zn1   O112 
Zn1   O119 
Zn1   O127 
Zn1   O129 
Zn2   O112 
Zn2   O120 
Zn2   O125 
Zn2   O130 
Zn3   O112 
Zn3   O121 
Zn3   O126 
Zn3   O128 
H4   C64 
H5   C65 
H6   C66 
H7   C67 
H8   C68 
H9   C69 
H10   C82 
H11   C83 
H12   C84 
H13   C85 
H14   C86 
H15   C87 
H16   C82 
H17   C83 
H18   C84 
H19   C85 
H20   C86 
H21   C87 
H22   C94 
H23   C95 
H24   C96 
H25   C97 
H26   C98 
H27   C99 
H28   C94 
H29   C95 
H30   C96 
H31   C97 
H32   C98 
H33   C99 
H34   C630 
H35   C631 
H36   C239 
H37   C240 
H38   C372 
H39   C373 
H40   C106 
H41   C107 
H42   C108 
H43   C109 
H44   C110 
H45   C111 
H46   C100 
H47   C101 
H48   C102 
H49   C103 
H50   C104 
H51   C105 
H52   C624 
H53   C625 
H54   C233 
H55   C234 
H56   C366 
H57   C367 
C58   C64 
C58   C70 
C58   C76 
C59   C65 
C59   C71 
C59   C77 
C60   C66 
C60   C72 
C60   C78 
C61   C67 
C61   C73 
C61   C79 
C62   C68 
C62   C74 
C62   C80 
C63   C69 
C63   C75 
C63   C81 
C64   C202 
C65   C201 
C66   C335 
C67   C334 
C68   C599 
C69   C598 
C70   O113 
C70   C196 
C71   O114 
C71   C195 
C72   O115 
C72   C329 
C73   O116 
C73   C328 
C74   O117 
C74   C593 
C75   O118 
C75   C592 
C76   O119 
C76   O122 
C77   O125 
C77   O128 
C78   O120 
C78   O123 
C79   O126 
C79   O129 
C80   O121 
C80   O124 
C81   O127 
C81   O130 
C82   C94 
C82   C106 
C83   C95 
C83   C107 
C84   C96 
C84   C108 
C85   C97 
C85   C109 
C86   C98 
C86   C110 
C87   C99 
C87   C111 
H88   C100 
H89   C101 
H90   C102 
H91   C103 
H92   C104 
H93   C105 
C94   O113 
C95   O114 
C96   O115 
C97   O116 
C98   O117 
C99   O118 
C100   H576 
C100   C630 
C101   H577 
C101   C631 
C102   H185 
C102   C239 
C103   H186 
C103   C240 
C104   H318 
C104   C372 
C105   H319 
C105   C373 
C106   H558 
C106   C624 
C107   H559 
C107   C625 
C108   H167 
C108   C233 
C109   H168 
C109   C234 
C110   H300 
C110   C366 
C111   H301 
C111   C367 
Zn131   O243 
Zn131   O253 
Zn131   O254 
Zn131   O255 
Zn132   O243 
Zn132   O250 
Zn132   O258 
Zn132   O260 
Zn133   O243 
Zn133   O251 
Zn133   O256 
Zn133   O261 
Zn134   O243 
Zn134   O252 
Zn134   O257 
Zn134   O259 
H135   C195 
H136   C196 
H137   C197 
H138   C198 
H139   C199 
H140   C200 
H141   C213 
H142   C214 
H143   C215 
H144   C216 
H145   C217 
H146   C218 
H147   C213 
H148   C214 
H149   C215 
H150   C216 
H151   C217 
H152   C218 
H153   C225 
H154   C226 
H155   C227 
H156   C228 
H157   C229 
H158   C230 
H159   C225 
H160   C226 
H161   C227 
H162   C228 
H163   C229 
H164   C230 
H165   C761 
H166   C762 
H169   C503 
H170   C504 
H171   C237 
H172   C238 
H173   C239 
H174   C240 
H175   C241 
H176   C242 
H177   C231 
H178   C232 
H179   C233 
H180   C234 
H181   C235 
H182   C236 
H183   C755 
H184   C756 
H187   C497 
H188   C498 
C189   C195 
C189   C201 
C189   C208 
C190   C196 
C190   C202 
C190   C207 
C191   C197 
C191   C203 
C191   C210 
C192   C198 
C192   C204 
C192   C209 
C193   C199 
C193   C205 
C193   C212 
C194   C200 
C194   C206 
C194   C211 
C197   C466 
C198   C465 
C199   C730 
C200   C729 
C201   O244 
C202   O245 
C203   O246 
C203   C460 
C204   O247 
C204   C459 
C205   O248 
C205   C724 
C206   O249 
C206   C723 
C207   O250 
C207   O253 
C208   O256 
C208   O259 
C209   O251 
C209   O254 
C210   O257 
C210   O260 
C211   O252 
C211   O255 
C212   O258 
C212   O261 
C213   C225 
C213   C237 
C214   C226 
C214   C238 
C215   C227 
C215   C239 
C216   C228 
C216   C240 
C217   C229 
C217   C241 
C218   C230 
C218   C242 
H219   C231 
H220   C232 
H221   C233 
H222   C234 
H223   C235 
H224   C236 
C225   O244 
C226   O245 
C227   O246 
C228   O247 
C229   O248 
C230   O249 
C231   H707 
C231   C761 
C232   H708 
C232   C762 
C235   H449 
C235   C503 
C236   H450 
C236   C504 
C237   H689 
C237   C755 
C238   H690 
C238   C756 
C241   H431 
C241   C497 
C242   H432 
C242   C498 
Zn262   O374 
Zn262   O384 
Zn262   O385 
Zn262   O386 
Zn263   O374 
Zn263   O381 
Zn263   O389 
Zn263   O391 
Zn264   O374 
Zn264   O382 
Zn264   O387 
Zn264   O392 
Zn265   O374 
Zn265   O383 
Zn265   O388 
Zn265   O390 
H266   C326 
H267   C327 
H268   C328 
H269   C329 
H270   C330 
H271   C331 
H272   C344 
H273   C345 
H274   C346 
H275   C347 
H276   C348 
H277   C349 
H278   C344 
H279   C345 
H280   C346 
H281   C347 
H282   C348 
H283   C349 
H284   C356 
H285   C357 
H286   C358 
H287   C359 
H288   C360 
H289   C361 
H290   C356 
H291   C357 
H292   C358 
H293   C359 
H294   C360 
H295   C361 
H296   C892 
H297   C893 
H298   C501 
H299   C502 
H302   C368 
H303   C369 
H304   C370 
H305   C371 
H306   C372 
H307   C373 
H308   C362 
H309   C363 
H310   C364 
H311   C365 
H312   C366 
H313   C367 
H314   C886 
H315   C887 
H316   C495 
H317   C496 
C320   C326 
C320   C332 
C320   C339 
C321   C327 
C321   C333 
C321   C338 
C322   C328 
C322   C334 
C322   C341 
C323   C329 
C323   C335 
C323   C340 
C324   C330 
C324   C336 
C324   C343 
C325   C331 
C325   C337 
C325   C342 
C326   C464 
C327   C463 
C330   C861 
C331   C860 
C332   O375 
C332   C458 
C333   O376 
C333   C457 
C334   O377 
C335   O378 
C336   O379 
C336   C855 
C337   O380 
C337   C854 
C338   O381 
C338   O384 
C339   O387 
C339   O390 
C340   O382 
C340   O385 
C341   O388 
C341   O391 
C342   O383 
C342   O386 
C343   O389 
C343   O392 
C344   C356 
C344   C368 
C345   C357 
C345   C369 
C346   C358 
C346   C370 
C347   C359 
C347   C371 
C348   C360 
C348   C372 
C349   C361 
C349   C373 
H350   C362 
H351   C363 
H352   C364 
H353   C365 
H354   C366 
H355   C367 
C356   O375 
C357   O376 
C358   O377 
C359   O378 
C360   O379 
C361   O380 
C362   H838 
C362   C892 
C363   H839 
C363   C893 
C364   H447 
C364   C501 
C365   H448 
C365   C502 
C368   H820 
C368   C886 
C369   H821 
C369   C887 
C370   H429 
C370   C495 
C371   H430 
C371   C496 
Zn393   O505 
Zn393   O515 
Zn393   O516 
Zn393   O517 
Zn394   O505 
Zn394   O512 
Zn394   O520 
Zn394   O522 
Zn395   O505 
Zn395   O513 
Zn395   O518 
Zn395   O523 
Zn396   O505 
Zn396   O514 
Zn396   O519 
Zn396   O521 
H397   C457 
H398   C458 
H399   C459 
H400   C460 
H401   C461 
H402   C462 
H403   C475 
H404   C476 
H405   C477 
H406   C478 
H407   C479 
H408   C480 
H409   C475 
H410   C476 
H411   C477 
H412   C478 
H413   C479 
H414   C480 
H415   C487 
H416   C488 
H417   C489 
H418   C490 
H419   C491 
H420   C492 
H421   C487 
H422   C488 
H423   C489 
H424   C490 
H425   C491 
H426   C492 
H427   C1023 
H428   C1024 
H433   C499 
H434   C500 
H435   C501 
H436   C502 
H437   C503 
H438   C504 
H439   C493 
H440   C494 
H441   C495 
H442   C496 
H443   C497 
H444   C498 
H445   C1017 
H446   C1018 
C451   C457 
C451   C463 
C451   C469 
C452   C458 
C452   C464 
C452   C470 
C453   C459 
C453   C465 
C453   C471 
C454   C460 
C454   C466 
C454   C472 
C455   C461 
C455   C467 
C455   C473 
C456   C462 
C456   C468 
C456   C474 
C461   C992 
C462   C991 
C463   O506 
C464   O507 
C465   O508 
C466   O509 
C467   O510 
C467   C986 
C468   O511 
C468   C985 
C469   O512 
C469   O515 
C470   O518 
C470   O521 
C471   O513 
C471   O516 
C472   O519 
C472   O522 
C473   O514 
C473   O517 
C474   O520 
C474   O523 
C475   C487 
C475   C499 
C476   C488 
C476   C500 
C477   C489 
C477   C501 
C478   C490 
C478   C502 
C479   C491 
C479   C503 
C480   C492 
C480   C504 
H481   C493 
H482   C494 
H483   C495 
H484   C496 
H485   C497 
H486   C498 
C487   O506 
C488   O507 
C489   O508 
C490   O509 
C491   O510 
C492   O511 
C493   H969 
C493   C1023 
C494   H970 
C494   C1024 
C499   H951 
C499   C1017 
C500   H952 
C500   C1018 
Zn524   O636 
Zn524   O646 
Zn524   O647 
Zn524   O648 
Zn525   O636 
Zn525   O643 
Zn525   O651 
Zn525   O653 
Zn526   O636 
Zn526   O644 
Zn526   O649 
Zn526   O654 
Zn527   O636 
Zn527   O645 
Zn527   O650 
Zn527   O652 
H528   C588 
H529   C589 
H530   C590 
H531   C591 
H532   C592 
H533   C593 
H534   C606 
H535   C607 
H536   C608 
H537   C609 
H538   C610 
H539   C611 
H540   C606 
H541   C607 
H542   C608 
H543   C609 
H544   C610 
H545   C611 
H546   C618 
H547   C619 
H548   C620 
H549   C621 
H550   C622 
H551   C623 
H552   C618 
H553   C619 
H554   C620 
H555   C621 
H556   C622 
H557   C623 
H560   C763 
H561   C764 
H562   C896 
H563   C897 
H564   C630 
H565   C631 
H566   C632 
H567   C633 
H568   C634 
H569   C635 
H570   C624 
H571   C625 
H572   C626 
H573   C627 
H574   C628 
H575   C629 
H578   C757 
H579   C758 
H580   C890 
H581   C891 
C582   C588 
C582   C594 
C582   C601 
C583   C589 
C583   C595 
C583   C600 
C584   C590 
C584   C596 
C584   C603 
C585   C591 
C585   C597 
C585   C602 
C586   C592 
C586   C598 
C586   C605 
C587   C593 
C587   C599 
C587   C604 
C588   C726 
C589   C725 
C590   C859 
C591   C858 
C594   O637 
C594   C720 
C595   O638 
C595   C719 
C596   O639 
C596   C853 
C597   O640 
C597   C852 
C598   O641 
C599   O642 
C600   O643 
C600   O646 
C601   O649 
C601   O652 
C602   O644 
C602   O647 
C603   O650 
C603   O653 
C604   O645 
C604   O648 
C605   O651 
C605   O654 
C606   C618 
C606   C630 
C607   C619 
C607   C631 
C608   C620 
C608   C632 
C609   C621 
C609   C633 
C610   C622 
C610   C634 
C611   C623 
C611   C635 
H612   C624 
H613   C625 
H614   C626 
H615   C627 
H616   C628 
H617   C629 
C618   O637 
C619   O638 
C620   O639 
C621   O640 
C622   O641 
C623   O642 
C626   H709 
C626   C763 
C627   H710 
C627   C764 
C628   H842 
C628   C896 
C629   H843 
C629   C897 
C632   H691 
C632   C757 
C633   H692 
C633   C758 
C634   H824 
C634   C890 
C635   H825 
C635   C891 
Zn655   O767 
Zn655   O777 
Zn655   O778 
Zn655   O779 
Zn656   O767 
Zn656   O774 
Zn656   O782 
Zn656   O784 
Zn657   O767 
Zn657   O775 
Zn657   O780 
Zn657   O785 
Zn658   O767 
Zn658   O776 
Zn658   O781 
Zn658   O783 
H659   C719 
H660   C720 
H661   C721 
H662   C722 
H663   C723 
H664   C724 
H665   C737 
H666   C738 
H667   C739 
H668   C740 
H669   C741 
H670   C742 
H671   C737 
H672   C738 
H673   C739 
H674   C740 
H675   C741 
H676   C742 
H677   C749 
H678   C750 
H679   C751 
H680   C752 
H681   C753 
H682   C754 
H683   C749 
H684   C750 
H685   C751 
H686   C752 
H687   C753 
H688   C754 
H693   C1027 
H694   C1028 
H695   C761 
H696   C762 
H697   C763 
H698   C764 
H699   C765 
H700   C766 
H701   C755 
H702   C756 
H703   C757 
H704   C758 
H705   C759 
H706   C760 
H711   C1021 
H712   C1022 
C713   C719 
C713   C725 
C713   C731 
C714   C720 
C714   C726 
C714   C732 
C715   C721 
C715   C727 
C715   C733 
C716   C722 
C716   C728 
C716   C734 
C717   C723 
C717   C729 
C717   C735 
C718   C724 
C718   C730 
C718   C736 
C721   C990 
C722   C989 
C725   O768 
C726   O769 
C727   O770 
C727   C984 
C728   O771 
C728   C983 
C729   O772 
C730   O773 
C731   O774 
C731   O777 
C732   O780 
C732   O783 
C733   O775 
C733   O778 
C734   O781 
C734   O784 
C735   O776 
C735   O779 
C736   O782 
C736   O785 
C737   C749 
C737   C761 
C738   C750 
C738   C762 
C739   C751 
C739   C763 
C740   C752 
C740   C764 
C741   C753 
C741   C765 
C742   C754 
C742   C766 
H743   C755 
H744   C756 
H745   C757 
H746   C758 
H747   C759 
H748   C760 
C749   O768 
C750   O769 
C751   O770 
C752   O771 
C753   O772 
C754   O773 
C759   H973 
C759   C1027 
C760   H974 
C760   C1028 
C765   H955 
C765   C1021 
C766   H956 
C766   C1022 
Zn786   O898 
Zn786   O908 
Zn786   O909 
Zn786   O910 
Zn787   O898 
Zn787   O905 
Zn787   O913 
Zn787   O915 
Zn788   O898 
Zn788   O906 
Zn788   O911 
Zn788   O916 
Zn789   O898 
Zn789   O907 
Zn789   O912 
Zn789   O914 
H790   C850 
H791   C851 
H792   C852 
H793   C853 
H794   C854 
H795   C855 
H796   C868 
H797   C869 
H798   C870 
H799   C871 
H800   C872 
H801   C873 
H802   C868 
H803   C869 
H804   C870 
H805   C871 
H806   C872 
H807   C873 
H808   C880 
H809   C881 
H810   C882 
H811   C883 
H812   C884 
H813   C885 
H814   C880 
H815   C881 
H816   C882 
H817   C883 
H818   C884 
H819   C885 
H822   C1025 
H823   C1026 
H826   C892 
H827   C893 
H828   C894 
H829   C895 
H830   C896 
H831   C897 
H832   C886 
H833   C887 
H834   C888 
H835   C889 
H836   C890 
H837   C891 
H840   C1019 
H841   C1020 
C844   C850 
C844   C856 
C844   C862 
C845   C851 
C845   C857 
C845   C863 
C846   C852 
C846   C858 
C846   C864 
C847   C853 
C847   C859 
C847   C865 
C848   C854 
C848   C860 
C848   C866 
C849   C855 
C849   C861 
C849   C867 
C850   C988 
C851   C987 
C856   O899 
C856   C982 
C857   O900 
C857   C981 
C858   O901 
C859   O902 
C860   O903 
C861   O904 
C862   O905 
C862   O908 
C863   O911 
C863   O914 
C864   O906 
C864   O909 
C865   O912 
C865   O915 
C866   O907 
C866   O910 
C867   O913 
C867   O916 
C868   C880 
C868   C892 
C869   C881 
C869   C893 
C870   C882 
C870   C894 
C871   C883 
C871   C895 
C872   C884 
C872   C896 
C873   C885 
C873   C897 
H874   C886 
H875   C887 
H876   C888 
H877   C889 
H878   C890 
H879   C891 
C880   O899 
C881   O900 
C882   O901 
C883   O902 
C884   O903 
C885   O904 
C888   H971 
C888   C1025 
C889   H972 
C889   C1026 
C894   H953 
C894   C1019 
C895   H954 
C895   C1020 
Zn917   O1029 
Zn917   O1039 
Zn917   O1040 
Zn917   O1041 
Zn918   O1029 
Zn918   O1036 
Zn918   O1044 
Zn918   O1046 
Zn919   O1029 
Zn919   O1037 
Zn919   O1042 
Zn919   O1047 
Zn920   O1029 
Zn920   O1038 
Zn920   O1043 
Zn920   O1045 
H921   C981 
H922   C982 
H923   C983 
H924   C984 
H925   C985 
H926   C986 
H927   C999 
H928   C1000 
H929   C1001 
H930   C1002 
H931   C1003 
H932   C1004 
H933   C999 
H934   C1000 
H935   C1001 
H936   C1002 
H937   C1003 
H938   C1004 
H939   C1011 
H940   C1012 
H941   C1013 
H942   C1014 
H943   C1015 
H944   C1016 
H945   C1011 
H946   C1012 
H947   C1013 
H948   C1014 
H949   C1015 
H950   C1016 
H957   C1023 
H958   C1024 
H959   C1025 
H960   C1026 
H961   C1027 
H962   C1028 
H963   C1017 
H964   C1018 
H965   C1019 
H966   C1020 
H967   C1021 
H968   C1022 
C975   C981 
C975   C987 
C975   C994 
C976   C982 
C976   C988 
C976   C993 
C977   C983 
C977   C989 
C977   C996 
C978   C984 
C978   C990 
C978   C995 
C979   C985 
C979   C991 
C979   C998 
C980   C986 
C980   C992 
C980   C997 
C987   O1030 
C988   O1031 
C989   O1032 
C990   O1033 
C991   O1034 
C992   O1035 
C993   O1036 
C993   O1039 
C994   O1042 
C994   O1045 
C995   O1037 
C995   O1040 
C996   O1043 
C996   O1046 
C997   O1038 
C997   O1041 
C998   O1044 
C998   O1047 
C999   C1011 
C999   C1023 
C1000   C1012 
C1000   C1024 
C1001   C1013 
C1001   C1025 
C1002   C1014 
C1002   C1026 
C1003   C1015 
C1003   C1027 
C1004   C1016 
C1004   C1028 
H1005   C1017 
H1006   C1018 
H1007   C1019 
H1008   C1020 
H1009   C1021 
H1010   C1022 
C1011   O1030 
C1012   O1031 
C1013   O1032 
C1014   O1033 
C1015   O1034 
C1016   O1035 
  
#END  
