data_
_symmetry_cell_setting           triclinic 
_symmetry_space_group_name_H-M   'P 1' 
_symmetry_Int_Tables_number      1 
loop_ 
_symmetry_equiv_pos_site_id 
_symmetry_equiv_pos_as_xyz 
1 x,y,z 
_cell_length_a             25.851656        
_cell_length_b             25.851657        
_cell_length_c             25.851657        
_cell_angle_alpha          90.000000        
_cell_angle_beta           90.000000        
_cell_angle_gamma          90.000000        
loop_  
_atom_site_label   
_atom_site_type_symbol  
_atom_site_fract_x  
_atom_site_fract_y  
_atom_site_fract_z 
 Zn0  Zn    -0.034343     -0.040923     -0.011097 
 Zn1  Zn    -0.031413      0.046772      0.074401 
 Zn2  Zn     0.054241     -0.041948      0.072163 
 Zn3  Zn     0.053162      0.044655     -0.014542 
 H4  H    -0.193936      0.003328      0.118797 
 H5  H     0.213824      0.018823     -0.051709 
 H6  H     0.095087     -0.199419      0.023676 
 H7  H    -0.067724      0.207163      0.032176 
 H8  H     0.019673      0.087213     -0.172269 
 H9  H     0.031114     -0.078056      0.232062 
 H10  H    -0.124262      0.044598     -0.125852 
 H11  H     0.148993     -0.047481      0.195045 
 H12  H    -0.153682     -0.159387      0.085440 
 H13  H     0.177591      0.136743     -0.020254 
 H14  H     0.026433     -0.152246     -0.103657 
 H15  H    -0.032046      0.163877      0.165139 
 H16  H    -0.136789     -0.019475     -0.144181 
 H17  H     0.163489      0.016961      0.211086 
 H18  H    -0.173657     -0.150793      0.020984 
 H19  H     0.194961      0.153714      0.043228 
 H20  H    -0.035503     -0.173231     -0.121845 
 H21  H     0.030259      0.183776      0.183467 
 H22  H    -0.220794      0.054971     -0.103549 
 H23  H     0.238906     -0.061386      0.162289 
 H24  H    -0.125477     -0.251418      0.062793 
 H25  H     0.146968      0.226726     -0.037836 
 H26  H     0.044764     -0.124674     -0.195338 
 H27  H    -0.050478      0.134319      0.255921 
 H28  H    -0.228692     -0.012079     -0.118310 
 H29  H     0.256481      0.002452      0.182281 
 H30  H    -0.138731     -0.236472     -0.003554 
 H31  H     0.168457      0.246682      0.024804 
 H32  H    -0.017362     -0.147892     -0.214446 
 H33  H     0.011633      0.157035      0.276008 
 H34  H    -0.238502      0.054509      0.298059 
 H35  H     0.140647     -0.021292     -0.215795 
 H36  H     0.291770     -0.120204      0.033721 
 H37  H    -0.232360      0.138923     -0.000387 
 H38  H     0.055218      0.246119     -0.126871 
 H39  H     0.007430     -0.247631      0.158683 
 H40  H    -0.196599      0.012794     -0.214602 
 H41  H     0.225379     -0.011665      0.278856 
 H42  H    -0.214866     -0.236977      0.091832 
 H43  H     0.263621      0.212698      0.010952 
 H44  H     0.003270     -0.240823     -0.179400 
 H45  H    -0.006247      0.251971      0.240569 
 C46  C    -0.185717      0.003538      0.035234 
 C47  C     0.206781      0.007951      0.030960 
 C48  C     0.011575     -0.194857      0.025974 
 C49  C     0.015456      0.199190      0.028716 
 C50  C     0.000665      0.005591     -0.165680 
 C51  C     0.020632      0.004778      0.226310 
 C52  C    -0.213832      0.003205      0.081520 
 C53  C     0.234337      0.011218     -0.015530 
 C54  C     0.058789     -0.220982      0.021936 
 C55  C    -0.030883      0.227129      0.027120 
 C56  C     0.011218      0.051259     -0.192848 
 C57  C     0.022761     -0.042275      0.253011 
 C58  C    -0.211078      0.003729     -0.012845 
 C59  C     0.232775     -0.001929      0.077631 
 C60  C    -0.035323     -0.222066      0.023733 
 C61  C     0.062758      0.224430      0.020034 
 C62  C    -0.008429     -0.040792     -0.192421 
 C63  C     0.010204      0.050901      0.252942 
 C64  C    -0.128079      0.000953      0.037490 
 C65  C     0.149098      0.004244      0.027879 
 C66  C     0.012214     -0.137116      0.026898 
 C67  C     0.012660      0.141322      0.029748 
 C68  C     0.002600      0.006429     -0.107944 
 C69  C     0.017561      0.002897      0.168513 
 C70  C    -0.154303      0.019391     -0.142508 
 C71  C     0.180371     -0.022130      0.208894 
 C72  C    -0.168497     -0.180217      0.051435 
 C73  C     0.192639      0.168846      0.003435 
 C74  C     0.004551     -0.169365     -0.135976 
 C75  C    -0.009784      0.180173      0.197665 
 C76  C    -0.200663      0.017504     -0.105916 
 C77  C     0.224150     -0.022038      0.169260 
 C78  C    -0.128497     -0.219858      0.034273 
 C79  C     0.154224      0.213605      0.002048 
 C80  C     0.005077     -0.132247     -0.181801 
 C81  C    -0.010731      0.142271      0.242900 
 H82  H    -0.165856      0.073603      0.262170 
 H83  H     0.193901     -0.083795     -0.232419 
 H84  H     0.272388     -0.174839      0.094037 
 H85  H    -0.254004      0.189504     -0.063528 
 H86  H     0.115570      0.266698     -0.181075 
 H87  H    -0.058210     -0.270567      0.205316 
 C88  C    -0.166198      0.037466     -0.198015 
 C89  C     0.196633     -0.039068      0.263629 
 C90  C    -0.221017     -0.204237      0.065266 
 C91  C     0.247481      0.182996     -0.014867 
 C92  C     0.025958     -0.223623     -0.147814 
 C93  C    -0.030435      0.234490      0.210310 
 O94  O     0.010502      0.002432      0.030431 
 O95  O    -0.180334      0.004527     -0.056008 
 O96  O     0.203503     -0.002202      0.121840 
 O97  O    -0.079808     -0.193905      0.029686 
 O98  O     0.106742      0.195142      0.023707 
 O99  O    -0.017728     -0.084756     -0.164553 
 O100  O     0.011989      0.095395      0.224310 
 O101  O    -0.105300      0.027854      0.071768 
 O102  O     0.047220     -0.115435      0.053719 
 O103  O     0.031159      0.040459     -0.087018 
 O104  O    -0.106317     -0.028667      0.005101 
 O105  O    -0.021620     -0.114076     -0.000058 
 O106  O    -0.024690     -0.026564     -0.084108 
 O107  O     0.126480     -0.023574      0.061416 
 O108  O     0.046444      0.117151      0.003654 
 O109  O    -0.009222      0.037411      0.145992 
 O110  O     0.127144      0.028167     -0.009048 
 O111  O    -0.023778      0.120653      0.055600 
 O112  O     0.041200     -0.034079      0.146381 
 Zn113  Zn    -0.446588      0.041392      0.079589 
 Zn114  Zn    -0.445335     -0.043090     -0.008720 
 Zn115  Zn     0.466944      0.042562     -0.006985 
 Zn116  Zn     0.467457     -0.045368      0.078111 
 H117  H     0.306904     -0.017785      0.113474 
 H118  H    -0.285328      0.001811     -0.051817 
 H119  H    -0.412158     -0.201797     -0.009388 
 H120  H     0.428076      0.203703      0.031385 
 H121  H     0.494820      0.081598     -0.167136 
 H122  H     0.488363     -0.083139      0.237839 
 H123  H     0.372711      0.047322     -0.133091 
 H124  H    -0.357511     -0.044479      0.188832 
 H125  H     0.371379     -0.132619      0.086021 
 H126  H    -0.328725      0.129555     -0.011551 
 H127  H    -0.432495     -0.162936     -0.106157 
 H128  H     0.476623      0.152180      0.166704 
 H129  H     0.354765     -0.015934     -0.150391 
 H130  H    -0.347125      0.020413      0.205529 
 H131  H     0.381561     -0.144044      0.019887 
 H132  H    -0.308959      0.142906      0.051999 
 H133  H    -0.495843     -0.183617     -0.119436 
 H134  H    -0.460328      0.172696      0.180943 
 H135  H     0.283364      0.064715     -0.099256 
 H136  H    -0.262800     -0.054708      0.167244 
 H137  H     0.364549     -0.231717      0.099181 
 H138  H    -0.354522      0.223485     -0.023096 
 H139  H    -0.423113     -0.129127     -0.196477 
 H140  H     0.461048      0.131491      0.260592 
 H141  H     0.263294      0.001922     -0.120164 
 H142  H    -0.251583      0.010582      0.187100 
 H143  H     0.383450     -0.238173      0.033341 
 H144  H    -0.333854      0.236034      0.041645 
 H145  H    -0.486141     -0.153049     -0.212034 
 H146  H    -0.475859      0.154844      0.276085 
 H147  H     0.372431      0.026470      0.282327 
 H148  H    -0.341418     -0.031092     -0.207378 
 H149  H    -0.238733     -0.220544      0.030117 
 H150  H     0.272528      0.148812     -0.010358 
 H151  H    -0.458584      0.244524     -0.114065 
 H152  H     0.471088     -0.246390      0.178148 
 H153  H     0.291756      0.018749     -0.215519 
 H154  H    -0.290929     -0.006953      0.279748 
 H155  H     0.293388     -0.185086      0.013288 
 H156  H    -0.240924      0.203842      0.018119 
 H157  H    -0.462882     -0.247762     -0.183823 
 H158  H    -0.494400      0.246591      0.232794 
 C159  C     0.313911     -0.007097      0.030727 
 C160  C    -0.293338      0.002813      0.031652 
 C161  C    -0.484582     -0.197985      0.033441 
 C162  C    -0.488749      0.194029      0.034515 
 C163  C    -0.495047     -0.001475     -0.160651 
 C164  C    -0.493858     -0.001354      0.232072 
 C165  C     0.286404     -0.010104      0.077297 
 C166  C    -0.265231      0.002705     -0.014629 
 C167  C    -0.443862     -0.223333      0.008331 
 C168  C     0.465685      0.223053      0.031244 
 C169  C    -0.498766      0.045323     -0.187787 
 C170  C     0.494625     -0.046963      0.258811 
 C171  C     0.287943      0.003119     -0.015880 
 C172  C    -0.267949      0.002303      0.079646 
 C173  C     0.475729     -0.227533      0.055892 
 C174  C    -0.440126      0.218140      0.032830 
 C175  C    -0.485448     -0.047949     -0.187183 
 C176  C    -0.488106      0.045480      0.258895 
 C177  C    -0.351061      0.004132      0.029469 
 C178  C     0.371717     -0.005474      0.033296 
 C179  C    -0.492945      0.136718      0.039201 
 C180  C    -0.484717     -0.139912      0.034595 
 C181  C    -0.489881     -0.003575      0.174461 
 C182  C    -0.492712      0.000588     -0.102853 
 C183  C     0.339935      0.023905     -0.147117 
 C184  C    -0.328747     -0.018092      0.205970 
 C185  C     0.362160     -0.159748      0.054455 
 C186  C    -0.311899      0.160009      0.013030 
 C187  C    -0.457389     -0.178432     -0.137100 
 C188  C    -0.499918      0.171202      0.196761 
 C189  C     0.296616      0.024969     -0.107028 
 C190  C    -0.280756     -0.016316      0.171653 
 C191  C     0.385085     -0.212488      0.067230 
 C192  C    -0.348732      0.206022      0.015339 
 C193  C    -0.461435     -0.138624     -0.180463 
 C194  C    -0.499639      0.137522      0.245308 
 H195  H     0.318597      0.088501      0.298469 
 H196  H    -0.289818     -0.090848     -0.235106 
 H197  H    -0.258697     -0.165835      0.090631 
 H198  H     0.250235      0.201817     -0.071277 
 H199  H    -0.398928      0.261439     -0.170167 
 H200  H     0.408047     -0.273346      0.226167 
 C201  C     0.323830      0.042807     -0.201239 
 C202  C    -0.319178     -0.033647      0.262554 
 C203  C     0.303389     -0.159383      0.045744 
 C204  C    -0.257145      0.173065     -0.006344 
 C205  C    -0.436900     -0.231679     -0.154209 
 C206  C     0.480668      0.226992      0.204492 
 O207  O    -0.489499     -0.001352      0.035417 
 O208  O     0.317004      0.003491     -0.060208 
 O209  O    -0.298930      0.001482      0.122511 
 O210  O     0.437414     -0.203890      0.083352 
 O211  O    -0.397260      0.187065      0.034248 
 O212  O    -0.483723     -0.092707     -0.158823 
 O213  O    -0.477730      0.088834      0.230398 
 O214  O    -0.372785     -0.020548     -0.007021 
 O215  O     0.470353      0.115060      0.014796 
 O216  O     0.482790     -0.037494      0.151803 
 O217  O    -0.373999      0.030299      0.064025 
 O218  O    -0.460198      0.114236      0.067911 
 O219  O    -0.459197      0.027758      0.152519 
 O220  O     0.394927      0.021923     -0.000165 
 O221  O     0.480361     -0.117646      0.060947 
 O222  O    -0.467195     -0.034665     -0.080151 
 O223  O     0.393256     -0.030857      0.069480 
 O224  O    -0.449590     -0.116978      0.008913 
 O225  O     0.484390      0.038131     -0.080837 
 Zn226  Zn     0.061581     -0.453303      0.057352 
 Zn227  Zn     0.062240      0.459782     -0.028981 
 Zn228  Zn    -0.027852     -0.456360     -0.026279 
 Zn229  Zn    -0.021406      0.457246      0.060327 
 H230  H    -0.179914      0.480750      0.098585 
 H231  H     0.224618      0.495875     -0.067096 
 H232  H     0.100192      0.297467      0.002976 
 H233  H    -0.071055     -0.297285      0.013144 
 H234  H    -0.003814     -0.418004     -0.186012 
 H235  H     0.010449      0.416069      0.218353 
 H236  H    -0.120960     -0.466090     -0.145278 
 H237  H     0.147672      0.458519      0.173951 
 H238  H    -0.144824      0.367284      0.062181 
 H239  H     0.178873     -0.338698     -0.042105 
 H240  H     0.065484      0.341708     -0.119011 
 H241  H     0.002400     -0.343296      0.148801 
 H242  H    -0.137217      0.471503     -0.166841 
 H243  H     0.160004     -0.477185      0.191840 
 H244  H    -0.164828      0.351087     -0.000786 
 H245  H     0.195529     -0.348511      0.023126 
 H246  H     0.001680      0.322717     -0.132624 
 H247  H     0.063062     -0.322021      0.170406 
 H248  H    -0.212547     -0.452523     -0.114094 
 H249  H     0.241829      0.445993      0.151481 
 H250  H    -0.112338      0.277352      0.076703 
 H251  H     0.152385     -0.246123     -0.019880 
 H252  H     0.078587      0.370255     -0.210349 
 H253  H    -0.020771     -0.370979      0.239517 
 H254  H    -0.229136      0.484427     -0.136575 
 H255  H     0.254849     -0.489288      0.171790 
 H256  H    -0.135982      0.258635      0.014401 
 H257  H     0.161822     -0.262111      0.046943 
 H258  H     0.016014      0.346177     -0.227483 
 H259  H     0.040331     -0.347757      0.261698 
 H260  H    -0.120499     -0.473514      0.267969 
 H261  H     0.167756      0.462400     -0.219893 
 H262  H     0.260851      0.359384      0.052728 
 H263  H    -0.281966     -0.383972      0.045064 
 H264  H     0.019349     -0.248306     -0.113723 
 H265  H    -0.025472      0.259068      0.175856 
 H266  H    -0.198505     -0.491455     -0.231751 
 H267  H     0.216139      0.492747      0.264827 
 H268  H    -0.230175      0.289035      0.034584 
 H269  H     0.242752     -0.263348     -0.045216 
 H270  H     0.033337      0.252583     -0.190828 
 H271  H     0.021566     -0.254034      0.224894 
 C272  C    -0.176610      0.484719      0.015429 
 C273  C     0.214672     -0.498990      0.015968 
 C274  C     0.017081      0.305571      0.008252 
 C275  C     0.012465     -0.301943      0.012833 
 C276  C     0.006980      0.499268     -0.180074 
 C277  C     0.027036      0.498324      0.212096 
 C278  C    -0.202329      0.484287      0.062878 
 C279  C     0.243848      0.496954     -0.029437 
 C280  C     0.063407      0.277573      0.009157 
 C281  C    -0.034781     -0.275752      0.016099 
 C282  C     0.003016     -0.454029     -0.207084 
 C283  C     0.016212      0.452485      0.239013 
 C284  C    -0.204584      0.489770     -0.030789 
 C285  C     0.238962     -0.499097      0.064569 
 C286  C    -0.030265      0.280398      0.016899 
 C287  C     0.059344     -0.274720      0.015023 
 C288  C     0.016160      0.452808     -0.206481 
 C289  C     0.033131     -0.454937      0.239146 
 C290  C     0.157169     -0.494772      0.011734 
 C291  C    -0.119339      0.492258      0.017162 
 C292  C     0.011905     -0.359617      0.015833 
 C293  C     0.020348      0.363225      0.011548 
 C294  C     0.025789      0.497694      0.154201 
 C295  C     0.011300     -0.498253     -0.122527 
 C296  C    -0.152937     -0.489235     -0.161454 
 C297  C     0.177285      0.483811      0.191236 
 C298  C    -0.160385      0.335350      0.038588 
 C299  C     0.192730     -0.318666     -0.007229 
 C300  C     0.040758      0.325068     -0.149524 
 C301  C     0.022318     -0.326106      0.182317 
 C302  C    -0.197152     -0.491321     -0.122389 
 C303  C     0.224858      0.484781      0.156281 
 C304  C    -0.121143      0.291245      0.037392 
 C305  C     0.153117     -0.278033      0.008390 
 C306  C     0.039464      0.361961     -0.195622 
 C307  C     0.019522     -0.363350      0.227971 
 H308  H    -0.175346     -0.411664      0.281172 
 H309  H     0.215785      0.398527     -0.244853 
 H310  H     0.278190      0.305921      0.114759 
 H311  H    -0.222750     -0.372893     -0.012700 
 H312  H     0.083759     -0.225261     -0.162061 
 H313  H    -0.087575      0.235840      0.226957 
 C314  C    -0.168144     -0.467133     -0.214573 
 C315  C     0.187442      0.466687      0.247340 
 C316  C    -0.214097      0.319750      0.059258 
 C317  C     0.246548     -0.296272     -0.018433 
 C318  C     0.059309      0.269927     -0.161975 
 C319  C     0.000019     -0.271922      0.192891 
 O320  O     0.018603     -0.498152      0.015402 
 O321  O    -0.176651      0.487147     -0.075704 
 O322  O     0.207525     -0.496540      0.107089 
 O323  O    -0.074333      0.309859      0.014269 
 O324  O     0.103771     -0.303092      0.009819 
 O325  O     0.016653      0.408819     -0.177024 
 O326  O     0.043122     -0.410823      0.211711 
 O327  O     0.135428      0.480042     -0.024442 
 O328  O    -0.024155     -0.382796     -0.008154 
 O329  O     0.000514      0.461389      0.132846 
 O330  O     0.134481     -0.465752      0.044101 
 O331  O     0.046728     -0.381001      0.042977 
 O332  O     0.050126     -0.466879      0.130569 
 O333  O    -0.098974     -0.479709     -0.017602 
 O334  O    -0.012855      0.385628      0.039872 
 O335  O     0.040389      0.468849     -0.100508 
 O336  O    -0.095652      0.471168      0.054735 
 O337  O     0.056778      0.385332     -0.013039 
 O338  O    -0.013633     -0.462293     -0.100212 
 Zn339  Zn     0.476271      0.453302     -0.020867 
 Zn340  Zn     0.474536     -0.461744      0.066364 
 Zn341  Zn    -0.436618      0.453291      0.065059 
 Zn342  Zn    -0.438299     -0.459577     -0.021473 
 H343  H     0.312210      0.499735      0.105344 
 H344  H    -0.280498     -0.499723     -0.064946 
 H345  H    -0.399587      0.291501      0.029650 
 H346  H     0.445644     -0.303370      0.071356 
 H347  H    -0.458823     -0.424264     -0.180919 
 H348  H    -0.467907      0.413153      0.225015 
 H349  H     0.388343     -0.465158     -0.136715 
 H350  H    -0.332955      0.444099      0.183093 
 H351  H     0.356266      0.365837      0.067321 
 H352  H    -0.302503     -0.303038     -0.039579 
 H353  H    -0.449492      0.340201     -0.111868 
 H354  H     0.463452     -0.341872      0.161609 
 H355  H     0.376143      0.470332     -0.153996 
 H356  H    -0.307827     -0.499618      0.212461 
 H357  H     0.339320      0.353550      0.002786 
 H358  H    -0.327301     -0.366779     -0.039606 
 H359  H     0.486934      0.319838     -0.123854 
 H360  H    -0.473960     -0.322083      0.179355 
 H361  H     0.293641     -0.453065     -0.114608 
 H362  H    -0.243509      0.428922      0.142501 
 H363  H     0.379149      0.270750      0.078866 
 H364  H    -0.349575     -0.285740      0.044278 
 H365  H    -0.437702      0.362065     -0.206017 
 H366  H     0.447455     -0.377115      0.249891 
 H367  H     0.281795      0.481336     -0.133091 
 H368  H    -0.225181      0.490944      0.167141 
 H369  H     0.362824      0.260244      0.012550 
 H370  H    -0.375791     -0.349230      0.041533 
 H371  H     0.498519      0.339170     -0.219212 
 H372  H    -0.491322     -0.352839      0.271249 
 H373  H     0.361150     -0.465239      0.262543 
 H374  H    -0.344514      0.467916     -0.226221 
 H375  H    -0.240522      0.352948      0.055252 
 H376  H     0.263027     -0.280601      0.017590 
 H377  H    -0.439196     -0.258309     -0.121027 
 H378  H     0.486006      0.248088      0.167857 
 H379  H     0.318548     -0.499975     -0.226350 
 H380  H    -0.267708      0.389403      0.227587 
 H381  H     0.267667      0.294974      0.032112 
 H382  H    -0.255974     -0.321052      0.044009 
 H383  H    -0.481245      0.246815     -0.178084 
 H384  H     0.489135     -0.258472      0.242475 
 C385  C     0.322263      0.494743      0.022223 
 C386  C    -0.284097      0.496700      0.018761 
 C387  C    -0.482720      0.301137      0.026522 
 C388  C    -0.482344     -0.306955      0.028013 
 C389  C    -0.478539      0.494386     -0.174374 
 C390  C    -0.477694      0.496251      0.219079 
 C391  C     0.293048      0.498558      0.067670 
 C392  C    -0.258508      0.496251     -0.029048 
 C393  C    -0.437182      0.272113      0.029715 
 C394  C     0.476821     -0.281606      0.052998 
 C395  C    -0.467581     -0.460121     -0.201540 
 C396  C    -0.475908      0.449101      0.245766 
 C397  C     0.297884      0.494386     -0.026320 
 C398  C    -0.256083      0.490359      0.064778 
 C399  C     0.468644      0.277020      0.027810 
 C400  C    -0.441921     -0.277361      0.006858 
 C401  C    -0.487500      0.447941     -0.201046 
 C402  C    -0.488883     -0.457653      0.245633 
 C403  C     0.379966      0.492720      0.025873 
 C404  C    -0.341914      0.498188      0.019604 
 C405  C    -0.478383      0.358406      0.021414 
 C406  C    -0.483932     -0.364892      0.024415 
 C407  C    -0.481024      0.496952     -0.116715 
 C408  C    -0.478460      0.494808      0.161173 
 C409  C     0.358671     -0.490750     -0.153523 
 C410  C    -0.297066      0.461805      0.197870 
 C411  C     0.340024      0.335981      0.041656 
 C412  C    -0.314830     -0.334932     -0.014168 
 C413  C    -0.474148      0.321621     -0.141231 
 C414  C     0.486402     -0.326923      0.194287 
 C415  C     0.311288     -0.491664     -0.118408 
 C416  C    -0.258139      0.467214      0.154275 
 C417  C     0.376166      0.289335      0.040650 
 C418  C    -0.360708     -0.317181      0.017824 
 C419  C    -0.476375      0.355960     -0.189190 
 C420  C     0.486969     -0.367130      0.237486 
 H421  H     0.305756     -0.406825      0.285693 
 H422  H    -0.294053      0.403960     -0.245417 
 H423  H    -0.213969      0.301802      0.116046 
 H424  H     0.284135     -0.335940     -0.041896 
 H425  H    -0.380972     -0.231148     -0.174736 
 H426  H     0.423703      0.231848      0.221285 
 C427  C     0.347790     -0.474030     -0.209545 
 C428  C    -0.275312      0.428736      0.242044 
 C429  C     0.284120      0.324136      0.058335 
 C430  C    -0.268912     -0.352947      0.018923 
 C431  C    -0.455034      0.266032     -0.150667 
 C432  C     0.465492     -0.273550      0.210478 
 O433  O    -0.480704      0.496816      0.022561 
 O434  O     0.329188      0.491399     -0.068866 
 O435  O    -0.282193      0.491524      0.110802 
 O436  O     0.425999      0.308354      0.025679 
 O437  O    -0.400049     -0.298897     -0.016819 
 O438  O    -0.497397      0.404485     -0.172612 
 O439  O    -0.488596     -0.412691      0.217529 
 O440  O     0.401277     -0.482180      0.062357 
 O441  O    -0.441507      0.380223      0.045433 
 O442  O    -0.454187     -0.468155     -0.094948 
 O443  O     0.403399      0.465581     -0.007562 
 O444  O     0.488733      0.380723     -0.007242 
 O445  O     0.489855      0.464856     -0.093813 
 O446  O    -0.364467      0.472450      0.054814 
 O447  O    -0.450541     -0.387085     -0.003938 
 O448  O     0.494702     -0.471047      0.138265 
 O449  O    -0.364152     -0.475381     -0.015366 
 O450  O     0.481016     -0.387732      0.050258 
 O451  O    -0.453053      0.458867      0.139218 
 Zn452  Zn     0.047711      0.045414     -0.427188 
 Zn453  Zn     0.049445     -0.039540      0.485581 
 Zn454  Zn    -0.039400      0.045425      0.486886 
 Zn455  Zn    -0.037719     -0.041707     -0.426582 
 H456  H    -0.195520     -0.001561     -0.383109 
 H457  H     0.211772     -0.001020      0.446602 
 H458  H     0.078338     -0.197914      0.480589 
 H459  H    -0.076431      0.207214     -0.477705 
 H460  H    -0.008111      0.085563      0.326930 
 H461  H    -0.017196     -0.077021     -0.267135 
 H462  H    -0.143063      0.054617      0.368852 
 H463  H     0.135639     -0.036126     -0.311339 
 H464  H    -0.173515     -0.198247     -0.408475 
 H465  H     0.167716      0.132879      0.484624 
 H466  H     0.060530     -0.159412      0.390337 
 H467  H    -0.026526      0.158515     -0.336186 
 H468  H    -0.168192     -0.001666      0.339485 
 H469  H     0.147839      0.028384     -0.294059 
 H470  H    -0.148717     -0.134505     -0.408448 
 H471  H     0.184662      0.145166     -0.450841 
 H472  H    -0.002059     -0.179201      0.372591 
 H473  H     0.037048      0.178878     -0.324200 
 H474  H    -0.232509      0.069794      0.409444 
 H475  H     0.230341     -0.048219     -0.333447 
 H476  H    -0.126443     -0.215544     -0.492333 
 H477  H     0.144832      0.227966      0.473080 
 H478  H     0.076527     -0.124169      0.302054 
 H479  H    -0.038316      0.136651     -0.242038 
 H480  H    -0.250837      0.007771      0.384804 
 H481  H     0.242187      0.017380     -0.314963 
 H482  H    -0.100227     -0.152054     -0.489588 
 H483  H     0.161158      0.238472     -0.460605 
 H484  H     0.015304     -0.148445      0.280696 
 H485  H     0.025463      0.159546     -0.228842 
 H486  H    -0.131505      0.030800     -0.221833 
 H487  H     0.162832     -0.036045      0.289403 
 H488  H     0.260955     -0.220683     -0.465644 
 H489  H    -0.235496      0.145768      0.496694 
 H490  H     0.037975      0.250627      0.384088 
 H491  H    -0.036822     -0.242975     -0.327028 
 H492  H    -0.208310      0.109313      0.324358 
 H493  H     0.205434     -0.001309     -0.221704 
 H494  H    -0.220044     -0.180232     -0.492063 
 H495  H     0.256315      0.203742     -0.480166 
 H496  H     0.034847     -0.242812      0.309471 
 H497  H     0.005227      0.251901     -0.269970 
 C498  C    -0.191921      0.002016     -0.466815 
 C499  C     0.201719      0.003973     -0.470278 
 C500  C     0.006326     -0.194329     -0.476067 
 C501  C     0.006702      0.197578     -0.474577 
 C502  C     0.001676      0.002465      0.332867 
 C503  C     0.002521      0.004330     -0.273680 
 C504  C    -0.217510      0.002465     -0.419007 
 C505  C     0.230934      0.000158      0.484276 
 C506  C     0.047161     -0.219679      0.498947 
 C507  C    -0.038836      0.226603     -0.477770 
 C508  C    -0.000111      0.049615      0.306180 
 C509  C    -0.008437     -0.041163     -0.246514 
 C510  C    -0.219936      0.008357      0.487167 
 C511  C     0.226098      0.004330     -0.421734 
 C512  C    -0.034097     -0.223923     -0.454912 
 C513  C     0.055338      0.221696     -0.475864 
 C514  C     0.012865     -0.043631      0.306313 
 C515  C     0.011482      0.050775     -0.247008 
 C516  C     0.144016      0.005996     -0.473928 
 C517  C    -0.134104      0.000527     -0.467659 
 C518  C     0.002365      0.140310     -0.469469 
 C519  C     0.007914     -0.136392     -0.472470 
 C520  C     0.005006      0.001763     -0.331340 
 C521  C     0.002442      0.003908      0.390773 
 C522  C    -0.178952      0.036911      0.354076 
 C523  C     0.165311     -0.010534     -0.294532 
 C524  C    -0.161188     -0.166353     -0.433887 
 C525  C     0.183958      0.162735     -0.489710 
 C526  C     0.037580     -0.174361      0.357659 
 C527  C    -0.001871      0.177095     -0.306823 
 C528  C    -0.217879      0.031502      0.397670 
 C529  C     0.212693     -0.009621     -0.329647 
 C530  C    -0.115310     -0.184103     -0.465879 
 C531  C     0.147816      0.209381     -0.488704 
 C532  C     0.037013     -0.134154      0.314460 
 C533  C     0.000357      0.142756     -0.258864 
 H534  H    -0.181965      0.094756     -0.202637 
 H535  H     0.218225     -0.094459      0.266252 
 H536  H     0.239847     -0.165344     -0.406159 
 H537  H    -0.262049      0.196914      0.435899 
 H538  H     0.100279      0.266868      0.330660 
 H539  H    -0.095046     -0.270137     -0.273319 
 C540  C    -0.200706      0.069980      0.309901 
 C541  C     0.176192     -0.027254     -0.238510 
 C542  C    -0.207106     -0.148337     -0.466977 
 C543  C     0.239862      0.174579      0.493611 
 C544  C     0.058490     -0.227735      0.341467 
 C545  C    -0.020984      0.232684     -0.297388 
 O546  O     0.004686      0.001899     -0.470615 
 O547  O    -0.193825      0.007192      0.441143 
 O548  O     0.194794      0.007316     -0.379188 
 O549  O    -0.075969     -0.202387     -0.431236 
 O550  O     0.097983      0.190362     -0.473734 
 O551  O     0.012578     -0.088593      0.334417 
 O552  O     0.021379      0.094230     -0.275442 
 O553  O     0.122704     -0.019104      0.489589 
 O554  O    -0.034511      0.118493     -0.493487 
 O555  O    -0.021831     -0.033129     -0.353106 
 O556  O     0.120583      0.033135     -0.440492 
 O557  O     0.035249      0.117992     -0.440813 
 O558  O     0.034127      0.033859     -0.354241 
 O559  O    -0.111551      0.026266      0.497132 
 O560  O    -0.025477     -0.114199     -0.444117 
 O561  O     0.029280     -0.030237      0.413680 
 O562  O    -0.111866     -0.025903     -0.432688 
 O563  O     0.042966     -0.113552     -0.498313 
 O564  O    -0.022965      0.039849      0.412728 
 Zn565  Zn     0.462401     -0.047981      0.494593 
 Zn566  Zn     0.461741      0.038934     -0.419073 
 Zn567  Zn    -0.448166     -0.044924     -0.421775 
 Zn568  Zn    -0.454612      0.041470      0.491619 
 H569  H     0.299363      0.002841     -0.380959 
 H570  H    -0.296104      0.017966      0.453361 
 H571  H    -0.404964     -0.203999     -0.461199 
 H572  H     0.423790      0.201249     -0.451031 
 H573  H    -0.486467      0.082647      0.333592 
 H574  H    -0.472204     -0.083281     -0.262043 
 H575  H     0.376310      0.040197      0.377995 
 H576  H    -0.355058     -0.035194     -0.302777 
 H577  H     0.345109     -0.162586     -0.405949 
 H578  H    -0.331194      0.131432      0.489765 
 H579  H    -0.478418     -0.157988      0.403145 
 H580  H     0.458497      0.157008     -0.329044 
 H581  H     0.363977     -0.024099      0.360106 
 H582  H    -0.338801      0.027213     -0.281213 
 H583  H     0.328453     -0.152773     -0.471181 
 H584  H    -0.311190      0.147628     -0.447268 
 H585  H     0.460920     -0.179264      0.381539 
 H586  H    -0.477698      0.175998     -0.315431 
 H587  H     0.282153      0.052723      0.400465 
 H588  H    -0.263471     -0.048762     -0.333961 
 H589  H     0.371597     -0.255161     -0.428175 
 H590  H    -0.363680      0.221364      0.475242 
 H591  H    -0.455247     -0.130305      0.312428 
 H592  H     0.445395      0.128461     -0.237706 
 H593  H     0.269133     -0.011996      0.380156 
 H594  H    -0.246882      0.014288     -0.311480 
 H595  H     0.362160     -0.239173     -0.494997 
 H596  H    -0.340036      0.240081     -0.462456 
 H597  H     0.483651     -0.153527      0.290248 
 H598  H    -0.492032      0.152539     -0.220571 
 H599  H     0.356226      0.036315     -0.228161 
 H600  H    -0.355519     -0.027771      0.283976 
 H601  H    -0.194052     -0.117312     -0.493119 
 H602  H     0.263131      0.139332      0.499218 
 H603  H    -0.450546      0.239648      0.376089 
 H604  H    -0.495368     -0.252979     -0.334331 
 H605  H     0.307843      0.005969      0.287119 
 H606  H    -0.277513     -0.009829     -0.216304 
 H607  H     0.281230     -0.237936     -0.402839 
 H608  H    -0.245843      0.209681     -0.482639 
 H609  H    -0.497584     -0.247250      0.327051 
 H610  H     0.490645      0.246133     -0.257227 
 C611  C     0.309310     -0.002295     -0.464022 
 C612  C    -0.299408      0.013997     -0.463483 
 C613  C    -0.488483     -0.199341     -0.460887 
 C614  C    -0.493100      0.193145     -0.456306 
 C615  C     0.496946      0.000392      0.339850 
 C616  C    -0.482998     -0.000552     -0.267981 
 C617  C     0.280134      0.001762     -0.418617 
 C618  C    -0.273689      0.014428      0.489068 
 C619  C    -0.441237     -0.225532     -0.464153 
 C620  C     0.460575      0.221143     -0.457211 
 C621  C    -0.492230      0.046231      0.312933 
 C622  C    -0.479034     -0.047255     -0.240971 
 C623  C     0.285020     -0.002187      0.487376 
 C624  C    -0.271434      0.008946     -0.417266 
 C625  C     0.464638     -0.226564     -0.463077 
 C626  C    -0.445753      0.218318     -0.464953 
 C627  C     0.490851     -0.046347      0.312799 
 C628  C    -0.492178      0.045908     -0.241573 
 C629  C     0.366813     -0.006512     -0.459789 
 C630  C    -0.356679      0.006458     -0.465216 
 C631  C    -0.487923     -0.141667     -0.463888 
 C632  C    -0.496366      0.135491     -0.459603 
 C633  C     0.498193      0.001022      0.397745 
 C634  C    -0.487318     -0.003031     -0.325527 
 C635  C     0.346697      0.014905      0.360710 
 C636  C    -0.323081     -0.012049     -0.286601 
 C637  C     0.331252     -0.182618     -0.440826 
 C638  C    -0.315633      0.163366     -0.486642 
 C639  C    -0.498336     -0.175178      0.369628 
 C640  C     0.483224      0.173648     -0.298530 
 C641  C     0.299124      0.013934      0.395665 
 C642  C    -0.278867     -0.009963     -0.325666 
 C643  C     0.370865     -0.223251     -0.456445 
 C644  C    -0.354875      0.207471     -0.485447 
 C645  C    -0.495540     -0.137934      0.323975 
 C646  C     0.484518      0.136755     -0.252433 
 H647  H     0.308197      0.100189     -0.203201 
 H648  H    -0.300672     -0.089620      0.270774 
 H649  H    -0.253268     -0.128391     -0.435354 
 H650  H     0.245792      0.192795      0.437187 
 H651  H    -0.388443      0.262876      0.324989 
 H652  H     0.440223     -0.276023     -0.285993 
 C653  C     0.336540      0.032029      0.304606 
 C654  C    -0.307875     -0.034151     -0.233482 
 C655  C     0.277434     -0.205012     -0.429621 
 C656  C    -0.261921      0.178966      0.492687 
 C657  C    -0.476037     -0.229362      0.359054 
 C658  C     0.464672      0.228789     -0.286080 
 O659  O    -0.494621     -0.003132     -0.463456 
 O660  O     0.316456     -0.004744      0.444856 
 O661  O    -0.299367      0.011569     -0.372350 
 O662  O     0.420211     -0.198192     -0.457873 
 O663  O    -0.401685      0.188857     -0.462323 
 O664  O     0.480860     -0.090461      0.340234 
 O665  O    -0.492671      0.089897     -0.271030 
 O666  O     0.388554      0.018674     -0.423613 
 O667  O    -0.451863     -0.118489     -0.439900 
 O668  O    -0.476532      0.037327      0.419100 
 O669  O     0.389500     -0.035533     -0.492155 
 O670  O     0.477254     -0.120283     -0.491032 
 O671  O     0.473856     -0.034405      0.421377 
 O672  O    -0.377044     -0.021575     -0.430452 
 O673  O    -0.463163      0.113088     -0.487927 
 O674  O     0.483593      0.029867     -0.347546 
 O675  O    -0.380366      0.027548      0.497211 
 O676  O     0.467204      0.113384     -0.435015 
 O677  O    -0.462386     -0.038991     -0.347843 
 Zn678  Zn    -0.029430      0.457324      0.472356 
 Zn679  Zn    -0.030683     -0.458194     -0.439335 
 Zn680  Zn     0.057038      0.456154     -0.441069 
 Zn681  Zn     0.056525     -0.455916      0.473834 
 H682  H    -0.190690      0.496904     -0.396238 
 H683  H     0.217078     -0.483499      0.438471 
 H684  H     0.095906      0.295013     -0.479440 
 H685  H    -0.063860     -0.299487     -0.438667 
 H686  H     0.035619     -0.418146      0.314106 
 H687  H     0.029162      0.417118     -0.280918 
 H688  H    -0.118507     -0.456805      0.363114 
 H689  H     0.151270      0.451394     -0.314964 
 H690  H    -0.147294      0.369161     -0.436503 
 H691  H     0.152603     -0.368665      0.465924 
 H692  H     0.047359      0.346536      0.385242 
 H693  H    -0.043523     -0.338348     -0.341897 
 H694  H    -0.128893      0.478302      0.346417 
 H695  H     0.169217     -0.485350     -0.297663 
 H696  H    -0.167059      0.355809      0.499947 
 H697  H     0.142421     -0.357240     -0.467941 
 H698  H    -0.015690      0.326020      0.371003 
 H699  H     0.019825     -0.317667     -0.328619 
 H700  H    -0.213218     -0.446576      0.384701 
 H701  H     0.240617      0.434001     -0.348798 
 H702  H    -0.121496      0.275230     -0.424958 
 H703  H     0.159433     -0.269567      0.452765 
 H704  H     0.062934      0.367224      0.291353 
 H705  H    -0.052906     -0.372157     -0.251577 
 H706  H    -0.224435      0.488134      0.364845 
 H707  H     0.260688      0.496794     -0.327891 
 H708  H    -0.142164      0.262682     -0.489699 
 H709  H     0.140532     -0.263111     -0.481396 
 H710  H    -0.000159      0.343872      0.275861 
 H711  H     0.010122     -0.348235     -0.236020 
 H712  H    -0.134600     -0.470193     -0.240677 
 H713  H     0.151551      0.472245      0.269618 
 H714  H     0.251454      0.349904     -0.437696 
 H715  H    -0.237285     -0.280740     -0.478172 
 H716  H     0.052894     -0.254894      0.373798 
 H717  H    -0.017434      0.254192     -0.333990 
 H718  H    -0.185090     -0.494332      0.272198 
 H719  H     0.232225      0.479966     -0.232536 
 H720  H    -0.235094      0.294874     -0.466174 
 H721  H     0.230594     -0.316198     -0.461342 
 H722  H     0.018381      0.252125      0.319152 
 H723  H    -0.013136     -0.253522     -0.264231 
 C724  C    -0.182680      0.495902     -0.479706 
 C725  C     0.210071     -0.494187     -0.478781 
 C726  C     0.012731      0.304687     -0.482570 
 C727  C     0.008564     -0.303299     -0.481495 
 C728  C     0.017839     -0.499930      0.319873 
 C729  C     0.019029     -0.499810     -0.287403 
 C730  C    -0.210787      0.496011     -0.433425 
 C731  C     0.237578     -0.491180      0.474649 
 C732  C     0.058297      0.275663     -0.479299 
 C733  C    -0.032156     -0.277951     -0.456386 
 C734  C     0.029357     -0.454321      0.293135 
 C735  C     0.022748      0.453393     -0.260268 
 C736  C    -0.208069      0.496413      0.472299 
 C737  C     0.236039      0.495597     -0.432174 
 C738  C    -0.035893      0.280576     -0.480885 
 C739  C     0.048253     -0.273751      0.496053 
 C740  C     0.012088      0.453235      0.293051 
 C741  C     0.009430     -0.453336     -0.260872 
 C742  C    -0.124957      0.494584     -0.477524 
 C743  C     0.152265     -0.495811     -0.481350 
 C744  C     0.016927      0.361998     -0.487255 
 C745  C     0.008699     -0.361372     -0.482649 
 C746  C     0.013863     -0.497709      0.377484 
 C747  C     0.016694      0.498128     -0.345202 
 C748  C    -0.147272     -0.483192      0.345975 
 C749  C     0.184047      0.474811     -0.300938 
 C750  C    -0.164119      0.338707     -0.461084 
 C751  C     0.161822     -0.341536      0.497490 
 C752  C     0.023900      0.327514      0.355184 
 C753  C    -0.018629     -0.322852     -0.310954 
 C754  C    -0.195263     -0.484969      0.380293 
 C755  C     0.227366      0.473747     -0.341026 
 C756  C    -0.127286      0.292693     -0.463393 
 C757  C     0.138897     -0.288796      0.484715 
 C758  C     0.023621      0.361194      0.306637 
 C759  C    -0.014583     -0.362661     -0.267592 
 H760  H    -0.186200     -0.410437     -0.212949 
 H761  H     0.205385      0.410215      0.253477 
 H762  H     0.273747      0.296899     -0.376777 
 H763  H    -0.217321     -0.335449      0.461315 
 H764  H     0.115935     -0.227938      0.325779 
 H765  H    -0.077090      0.237277     -0.277887 
 C766  C    -0.156840     -0.467637      0.289391 
 C767  C     0.200152      0.455909     -0.246815 
 C768  C    -0.218873      0.325650     -0.441710 
 C769  C     0.220593     -0.341901     -0.493799 
 C770  C     0.043314      0.271724      0.347454 
 C771  C    -0.039118     -0.269605     -0.293845 
 O772  O     0.013481     -0.499933     -0.483471 
 O773  O    -0.177088      0.497233      0.429435 
 O774  O     0.206978      0.495225     -0.387847 
 O775  O    -0.078758      0.311651     -0.482303 
 O776  O     0.086568     -0.297394      0.468593 
 O777  O     0.001712      0.409882      0.321548 
 O778  O     0.007704     -0.408577     -0.289231 
 O779  O    -0.103233     -0.480736     -0.441033 
 O780  O     0.053629      0.383655     -0.462850 
 O781  O     0.041192     -0.463790      0.400143 
 O782  O    -0.102019      0.468417      0.487920 
 O783  O    -0.015820      0.384480      0.484035 
 O784  O    -0.016821      0.470958      0.399427 
 O785  O     0.129055      0.476793     -0.447890 
 O786  O     0.043621     -0.383638      0.490999 
 O787  O    -0.008824     -0.466619     -0.367903 
 O788  O     0.130726     -0.470427      0.482466 
 O789  O    -0.026428     -0.384306     -0.456967 
 O790  O     0.039592      0.460584     -0.367217 
 Zn791  Zn    -0.441675     -0.460362     -0.436958 
 Zn792  Zn    -0.444605      0.451944      0.477545 
 Zn793  Zn     0.469741     -0.459337      0.479782 
 Zn794  Zn     0.470820      0.454060     -0.433513 
 H795  H     0.310158      0.479893     -0.396345 
 H796  H    -0.282082      0.495387      0.433149 
 H797  H    -0.408294      0.291552     -0.480231 
 H798  H     0.428895     -0.301865     -0.471730 
 H799  H     0.492868     -0.423228      0.319883 
 H800  H    -0.495692      0.411503     -0.275785 
 H801  H     0.374988     -0.453804      0.356900 
 H802  H    -0.351756      0.454118     -0.322202 
 H803  H     0.346390      0.361973     -0.427800 
 H804  H    -0.322336     -0.341898      0.466506 
 H805  H    -0.443972      0.334838      0.386807 
 H806  H     0.497549     -0.349038     -0.344397 
 H807  H     0.360492      0.481755      0.340860 
 H808  H    -0.339229     -0.481810     -0.303874 
 H809  H     0.329021      0.345002     -0.491283 
 H810  H    -0.302361     -0.350492     -0.469038 
 H811  H     0.493723      0.314940      0.368478 
 H812  H    -0.440515     -0.328053     -0.326210 
 H813  H     0.285075     -0.439899      0.389657 
 H814  H    -0.255224      0.443744     -0.344505 
 H815  H     0.377014      0.271990     -0.410218 
 H816  H    -0.350541     -0.249866      0.489152 
 H817  H    -0.425540      0.364396      0.296025 
 H818  H     0.479218     -0.376610     -0.252716 
 H819  H     0.267501      0.496264      0.369665 
 H820  H    -0.247326     -0.489205     -0.329744 
 H821  H     0.355525      0.252034     -0.472859 
 H822  H    -0.337288     -0.264812     -0.444501 
 H823  H    -0.487651      0.341681      0.275937 
 H824  H    -0.458656     -0.353392     -0.233608 
 H825  H     0.383335     -0.479992     -0.232260 
 H826  H    -0.237516      0.444207      0.253886 
 H827  H    -0.243659      0.359793     -0.447668 
 H828  H     0.232211     -0.381080     -0.481775 
 H829  H    -0.483448     -0.253653      0.393262 
 H830  H     0.468763      0.252597     -0.321184 
 H831  H     0.298603     -0.489619      0.273089 
 H832  H    -0.279420      0.485922     -0.233452 
 H833  H     0.260361      0.286018     -0.459006 
 H834  H    -0.261152     -0.264307      0.460113 
 H835  H    -0.469772      0.246745      0.311376 
 H836  H    -0.479288     -0.260461     -0.268655 
 C837  C     0.317201      0.490765     -0.479015 
 C838  C    -0.290302      0.495178     -0.483289 
 C839  C    -0.491474      0.299526     -0.476771 
 C840  C    -0.487593     -0.306427     -0.474029 
 C841  C    -0.496650      0.493938      0.325635 
 C842  C    -0.476683      0.493124     -0.282374 
 C843  C     0.289645      0.487498     -0.432524 
 C844  C    -0.262186      0.495511      0.470426 
 C845  C    -0.445135      0.271587     -0.475174 
 C846  C     0.465193     -0.280302     -0.469991 
 C847  C    -0.498779     -0.459009      0.298935 
 C848  C    -0.487236      0.447457     -0.255206 
 C849  C     0.291207     -0.499356      0.474315 
 C850  C    -0.264940      0.494987     -0.435209 
 C851  C     0.461224      0.274286     -0.468088 
 C852  C    -0.440695     -0.279218     -0.471788 
 C853  C    -0.486223      0.447815      0.299004 
 C854  C    -0.467589     -0.460492     -0.255633 
 C855  C    -0.347939      0.497763     -0.485545 
 C856  C     0.374884      0.494472     -0.475933 
 C857  C    -0.488232     -0.364168     -0.474952 
 C858  C    -0.488678      0.357394     -0.477803 
 C859  C    -0.478618      0.492286     -0.340111 
 C860  C    -0.493580      0.495819      0.383432 
 C861  C     0.343611     -0.479155      0.343052 
 C862  C    -0.321715      0.479324     -0.305546 
 C863  C     0.331342      0.329870     -0.451489 
 C864  C    -0.307521     -0.321067     -0.499489 
 C865  C    -0.466235      0.318542      0.354281 
 C866  C    -0.480569     -0.331920     -0.312078 
 C867  C     0.299832     -0.479246      0.382685 
 C868  C    -0.275355      0.481212     -0.342139 
 C869  C     0.369757      0.285111     -0.450103 
 C870  C    -0.347521     -0.281426     -0.482328 
 C871  C    -0.465287      0.356445      0.309045 
 C872  C    -0.481096     -0.369037     -0.266253 
 H873  H     0.330081     -0.417490     -0.215636 
 H874  H    -0.310162      0.425112      0.289776 
 H875  H    -0.222014      0.309212     -0.384527 
 H876  H     0.251594     -0.326446      0.457909 
 H877  H    -0.417808     -0.230718      0.346630 
 H878  H     0.408412      0.232018     -0.266979 
 C879  C     0.327349     -0.462217      0.288317 
 C880  C    -0.309820      0.461250     -0.250039 
 C881  C     0.276501      0.315719     -0.433187 
 C882  C    -0.255001     -0.297047      0.486680 
 C883  C    -0.445584      0.264225      0.341635 
 C884  C     0.498024     -0.277661     -0.300241 
 O885  O    -0.486520      0.496284     -0.478485 
 O886  O     0.320479     -0.499082      0.430105 
 O887  O    -0.295684      0.494189     -0.392046 
 O888  O     0.417239      0.303574     -0.471762 
 O889  O    -0.396210     -0.307379     -0.477740 
 O890  O    -0.488007      0.403321      0.327636 
 O891  O    -0.458290     -0.416528     -0.283502 
 O892  O    -0.370718      0.470862      0.480178 
 O893  O     0.476762     -0.385850      0.498227 
 O894  O     0.492822      0.458256     -0.361037 
 O895  O    -0.369701     -0.472617     -0.453155 
 O896  O    -0.454398     -0.387208     -0.447997 
 O897  O    -0.451328     -0.474721     -0.363947 
 O898  O     0.397501     -0.477710      0.490529 
 O899  O     0.477538      0.381565     -0.451708 
 O900  O    -0.466796      0.461305      0.405953 
 O901  O     0.396838      0.470549     -0.439007 
 O902  O    -0.452240      0.378063      0.496346 
 O903  O     0.482782     -0.467205      0.405564 
loop_  
_geom_bond_atom_site_label_1  
_geom_bond_atom_site_label_2  
Zn0   O94 
Zn0   O104 
Zn0   O105 
Zn0   O106 
Zn1   O94 
Zn1   O101 
Zn1   O109 
Zn1   O111 
Zn2   O94 
Zn2   O102 
Zn2   O107 
Zn2   O112 
Zn3   O94 
Zn3   O103 
Zn3   O108 
Zn3   O110 
H4   C52 
H5   C53 
H6   C54 
H7   C55 
H8   C56 
H9   C57 
H10   C70 
H11   C71 
H12   C72 
H13   C73 
H14   C74 
H15   C75 
H16   C70 
H17   C71 
H18   C72 
H19   C73 
H20   C74 
H21   C75 
H22   C76 
H23   C77 
H24   C78 
H25   C79 
H26   C80 
H27   C81 
H28   C76 
H29   C77 
H30   C78 
H31   C79 
H32   C80 
H33   C81 
H34   C540 
H35   C541 
H36   C203 
H37   C204 
H38   C318 
H39   C319 
H40   C88 
H41   C89 
H42   C90 
H43   C91 
H44   C92 
H45   C93 
C46   C52 
C46   C58 
C46   C64 
C47   C53 
C47   C59 
C47   C65 
C48   C54 
C48   C60 
C48   C66 
C49   C55 
C49   C61 
C49   C67 
C50   C56 
C50   C62 
C50   C68 
C51   C57 
C51   C63 
C51   C69 
C52   C172 
C53   C171 
C54   C287 
C55   C286 
C56   C515 
C57   C514 
C58   O95 
C58   C166 
C59   O96 
C59   C165 
C60   O97 
C60   C281 
C61   O98 
C61   C280 
C62   O99 
C62   C509 
C63   O100 
C63   C508 
C64   O101 
C64   O104 
C65   O107 
C65   O110 
C66   O102 
C66   O105 
C67   O108 
C67   O111 
C68   O103 
C68   O106 
C69   O109 
C69   O112 
C70   C76 
C70   C88 
C71   C77 
C71   C89 
C72   C78 
C72   C90 
C73   C79 
C73   C91 
C74   C80 
C74   C92 
C75   C81 
C75   C93 
C76   O95 
C77   O96 
C78   O97 
C79   O98 
C80   O99 
C81   O100 
H82   C540 
H83   C541 
H84   C203 
H85   C204 
H86   C318 
H87   C319 
C88   H486 
C88   H534 
C89   H487 
C89   H535 
C90   H149 
C90   H197 
C91   H150 
C91   H198 
C92   H264 
C92   H312 
C93   H265 
C93   H313 
Zn113   O207 
Zn113   O217 
Zn113   O218 
Zn113   O219 
Zn114   O207 
Zn114   O214 
Zn114   O222 
Zn114   O224 
Zn115   O207 
Zn115   O215 
Zn115   O220 
Zn115   O225 
Zn116   O207 
Zn116   O216 
Zn116   O221 
Zn116   O223 
H117   C165 
H118   C166 
H119   C167 
H120   C168 
H121   C169 
H122   C170 
H123   C183 
H124   C184 
H125   C185 
H126   C186 
H127   C187 
H128   C188 
H129   C183 
H130   C184 
H131   C185 
H132   C186 
H133   C187 
H134   C188 
H135   C189 
H136   C190 
H137   C191 
H138   C192 
H139   C193 
H140   C194 
H141   C189 
H142   C190 
H143   C191 
H144   C192 
H145   C193 
H146   C194 
H147   C653 
H148   C654 
H151   C431 
H152   C432 
H153   C201 
H154   C202 
H155   C203 
H156   C204 
H157   C205 
H158   C206 
C159   C165 
C159   C171 
C159   C178 
C160   C166 
C160   C172 
C160   C177 
C161   C167 
C161   C173 
C161   C180 
C162   C168 
C162   C174 
C162   C179 
C163   C169 
C163   C175 
C163   C182 
C164   C170 
C164   C176 
C164   C181 
C167   C400 
C168   C399 
C169   C628 
C170   C627 
C171   O208 
C172   O209 
C173   O210 
C173   C394 
C174   O211 
C174   C393 
C175   O212 
C175   C622 
C176   O213 
C176   C621 
C177   O214 
C177   O217 
C178   O220 
C178   O223 
C179   O215 
C179   O218 
C180   O221 
C180   O224 
C181   O216 
C181   O219 
C182   O222 
C182   O225 
C183   C189 
C183   C201 
C184   C190 
C184   C202 
C185   C191 
C185   C203 
C186   C192 
C186   C204 
C187   C193 
C187   C205 
C188   C194 
C188   C206 
C189   O208 
C190   O209 
C191   O210 
C192   O211 
C193   O212 
C194   O213 
H195   C653 
H196   C654 
H199   C431 
H200   C432 
C201   H599 
C201   H647 
C202   H600 
C202   H648 
C205   H377 
C205   H425 
C206   H378 
C206   H426 
Zn226   O320 
Zn226   O330 
Zn226   O331 
Zn226   O332 
Zn227   O320 
Zn227   O327 
Zn227   O335 
Zn227   O337 
Zn228   O320 
Zn228   O328 
Zn228   O333 
Zn228   O338 
Zn229   O320 
Zn229   O329 
Zn229   O334 
Zn229   O336 
H230   C278 
H231   C279 
H232   C280 
H233   C281 
H234   C282 
H235   C283 
H236   C296 
H237   C297 
H238   C298 
H239   C299 
H240   C300 
H241   C301 
H242   C296 
H243   C297 
H244   C298 
H245   C299 
H246   C300 
H247   C301 
H248   C302 
H249   C303 
H250   C304 
H251   C305 
H252   C306 
H253   C307 
H254   C302 
H255   C303 
H256   C304 
H257   C305 
H258   C306 
H259   C307 
H260   C766 
H261   C767 
H262   C429 
H263   C430 
H266   C314 
H267   C315 
H268   C316 
H269   C317 
H270   C318 
H271   C319 
C272   C278 
C272   C284 
C272   C291 
C273   C279 
C273   C285 
C273   C290 
C274   C280 
C274   C286 
C274   C293 
C275   C281 
C275   C287 
C275   C292 
C276   C282 
C276   C288 
C276   C295 
C277   C283 
C277   C289 
C277   C294 
C278   C398 
C279   C397 
C282   C741 
C283   C740 
C284   O321 
C284   C392 
C285   O322 
C285   C391 
C286   O323 
C287   O324 
C288   O325 
C288   C735 
C289   O326 
C289   C734 
C290   O327 
C290   O330 
C291   O333 
C291   O336 
C292   O328 
C292   O331 
C293   O334 
C293   O337 
C294   O329 
C294   O332 
C295   O335 
C295   O338 
C296   C302 
C296   C314 
C297   C303 
C297   C315 
C298   C304 
C298   C316 
C299   C305 
C299   C317 
C300   C306 
C300   C318 
C301   C307 
C301   C319 
C302   O321 
C303   O322 
C304   O323 
C305   O324 
C306   O325 
C307   O326 
H308   C766 
H309   C767 
H310   C429 
H311   C430 
C314   H712 
C314   H760 
C315   H713 
C315   H761 
C316   H375 
C316   H423 
C317   H376 
C317   H424 
Zn339   O433 
Zn339   O443 
Zn339   O444 
Zn339   O445 
Zn340   O433 
Zn340   O440 
Zn340   O448 
Zn340   O450 
Zn341   O433 
Zn341   O441 
Zn341   O446 
Zn341   O451 
Zn342   O433 
Zn342   O442 
Zn342   O447 
Zn342   O449 
H343   C391 
H344   C392 
H345   C393 
H346   C394 
H347   C395 
H348   C396 
H349   C409 
H350   C410 
H351   C411 
H352   C412 
H353   C413 
H354   C414 
H355   C409 
H356   C410 
H357   C411 
H358   C412 
H359   C413 
H360   C414 
H361   C415 
H362   C416 
H363   C417 
H364   C418 
H365   C419 
H366   C420 
H367   C415 
H368   C416 
H369   C417 
H370   C418 
H371   C419 
H372   C420 
H373   C879 
H374   C880 
H379   C427 
H380   C428 
H381   C429 
H382   C430 
H383   C431 
H384   C432 
C385   C391 
C385   C397 
C385   C403 
C386   C392 
C386   C398 
C386   C404 
C387   C393 
C387   C399 
C387   C405 
C388   C394 
C388   C400 
C388   C406 
C389   C395 
C389   C401 
C389   C407 
C390   C396 
C390   C402 
C390   C408 
C395   C854 
C396   C853 
C397   O434 
C398   O435 
C399   O436 
C400   O437 
C401   O438 
C401   C848 
C402   O439 
C402   C847 
C403   O440 
C403   O443 
C404   O446 
C404   O449 
C405   O441 
C405   O444 
C406   O447 
C406   O450 
C407   O442 
C407   O445 
C408   O448 
C408   O451 
C409   C415 
C409   C427 
C410   C416 
C410   C428 
C411   C417 
C411   C429 
C412   C418 
C412   C430 
C413   C419 
C413   C431 
C414   C420 
C414   C432 
C415   O434 
C416   O435 
C417   O436 
C418   O437 
C419   O438 
C420   O439 
H421   C879 
H422   C880 
C427   H825 
C427   H873 
C428   H826 
C428   H874 
Zn452   O546 
Zn452   O556 
Zn452   O557 
Zn452   O558 
Zn453   O546 
Zn453   O553 
Zn453   O561 
Zn453   O563 
Zn454   O546 
Zn454   O554 
Zn454   O559 
Zn454   O564 
Zn455   O546 
Zn455   O555 
Zn455   O560 
Zn455   O562 
H456   C504 
H457   C505 
H458   C506 
H459   C507 
H460   C508 
H461   C509 
H462   C522 
H463   C523 
H464   C524 
H465   C525 
H466   C526 
H467   C527 
H468   C522 
H469   C523 
H470   C524 
H471   C525 
H472   C526 
H473   C527 
H474   C528 
H475   C529 
H476   C530 
H477   C531 
H478   C532 
H479   C533 
H480   C528 
H481   C529 
H482   C530 
H483   C531 
H484   C532 
H485   C533 
H488   C655 
H489   C656 
H490   C770 
H491   C771 
H492   C540 
H493   C541 
H494   C542 
H495   C543 
H496   C544 
H497   C545 
C498   C504 
C498   C510 
C498   C517 
C499   C505 
C499   C511 
C499   C516 
C500   C506 
C500   C512 
C500   C519 
C501   C507 
C501   C513 
C501   C518 
C502   C508 
C502   C514 
C502   C521 
C503   C509 
C503   C515 
C503   C520 
C504   C624 
C505   C623 
C506   C739 
C507   C738 
C510   O547 
C510   C618 
C511   O548 
C511   C617 
C512   O549 
C512   C733 
C513   O550 
C513   C732 
C514   O551 
C515   O552 
C516   O553 
C516   O556 
C517   O559 
C517   O562 
C518   O554 
C518   O557 
C519   O560 
C519   O563 
C520   O555 
C520   O558 
C521   O561 
C521   O564 
C522   C528 
C522   C540 
C523   C529 
C523   C541 
C524   C530 
C524   C542 
C525   C531 
C525   C543 
C526   C532 
C526   C544 
C527   C533 
C527   C545 
C528   O547 
C529   O548 
C530   O549 
C531   O550 
C532   O551 
C533   O552 
H536   C655 
H537   C656 
H538   C770 
H539   C771 
C542   H601 
C542   H649 
C543   H602 
C543   H650 
C544   H716 
C544   H764 
C545   H717 
C545   H765 
Zn565   O659 
Zn565   O669 
Zn565   O670 
Zn565   O671 
Zn566   O659 
Zn566   O666 
Zn566   O674 
Zn566   O676 
Zn567   O659 
Zn567   O667 
Zn567   O672 
Zn567   O677 
Zn568   O659 
Zn568   O668 
Zn568   O673 
Zn568   O675 
H569   C617 
H570   C618 
H571   C619 
H572   C620 
H573   C621 
H574   C622 
H575   C635 
H576   C636 
H577   C637 
H578   C638 
H579   C639 
H580   C640 
H581   C635 
H582   C636 
H583   C637 
H584   C638 
H585   C639 
H586   C640 
H587   C641 
H588   C642 
H589   C643 
H590   C644 
H591   C645 
H592   C646 
H593   C641 
H594   C642 
H595   C643 
H596   C644 
H597   C645 
H598   C646 
H603   C883 
H604   C884 
H605   C653 
H606   C654 
H607   C655 
H608   C656 
H609   C657 
H610   C658 
C611   C617 
C611   C623 
C611   C629 
C612   C618 
C612   C624 
C612   C630 
C613   C619 
C613   C625 
C613   C631 
C614   C620 
C614   C626 
C614   C632 
C615   C621 
C615   C627 
C615   C633 
C616   C622 
C616   C628 
C616   C634 
C619   C852 
C620   C851 
C623   O660 
C624   O661 
C625   O662 
C625   C846 
C626   O663 
C626   C845 
C627   O664 
C628   O665 
C629   O666 
C629   O669 
C630   O672 
C630   O675 
C631   O667 
C631   O670 
C632   O673 
C632   O676 
C633   O668 
C633   O671 
C634   O674 
C634   O677 
C635   C641 
C635   C653 
C636   C642 
C636   C654 
C637   C643 
C637   C655 
C638   C644 
C638   C656 
C639   C645 
C639   C657 
C640   C646 
C640   C658 
C641   O660 
C642   O661 
C643   O662 
C644   O663 
C645   O664 
C646   O665 
H651   C883 
H652   C884 
C657   H829 
C657   H877 
C658   H830 
C658   H878 
Zn678   O772 
Zn678   O782 
Zn678   O783 
Zn678   O784 
Zn679   O772 
Zn679   O779 
Zn679   O787 
Zn679   O789 
Zn680   O772 
Zn680   O780 
Zn680   O785 
Zn680   O790 
Zn681   O772 
Zn681   O781 
Zn681   O786 
Zn681   O788 
H682   C730 
H683   C731 
H684   C732 
H685   C733 
H686   C734 
H687   C735 
H688   C748 
H689   C749 
H690   C750 
H691   C751 
H692   C752 
H693   C753 
H694   C748 
H695   C749 
H696   C750 
H697   C751 
H698   C752 
H699   C753 
H700   C754 
H701   C755 
H702   C756 
H703   C757 
H704   C758 
H705   C759 
H706   C754 
H707   C755 
H708   C756 
H709   C757 
H710   C758 
H711   C759 
H714   C881 
H715   C882 
H718   C766 
H719   C767 
H720   C768 
H721   C769 
H722   C770 
H723   C771 
C724   C730 
C724   C736 
C724   C742 
C725   C731 
C725   C737 
C725   C743 
C726   C732 
C726   C738 
C726   C744 
C727   C733 
C727   C739 
C727   C745 
C728   C734 
C728   C740 
C728   C746 
C729   C735 
C729   C741 
C729   C747 
C730   C850 
C731   C849 
C736   O773 
C736   C844 
C737   O774 
C737   C843 
C738   O775 
C739   O776 
C740   O777 
C741   O778 
C742   O779 
C742   O782 
C743   O785 
C743   O788 
C744   O780 
C744   O783 
C745   O786 
C745   O789 
C746   O781 
C746   O784 
C747   O787 
C747   O790 
C748   C754 
C748   C766 
C749   C755 
C749   C767 
C750   C756 
C750   C768 
C751   C757 
C751   C769 
C752   C758 
C752   C770 
C753   C759 
C753   C771 
C754   O773 
C755   O774 
C756   O775 
C757   O776 
C758   O777 
C759   O778 
H762   C881 
H763   C882 
C768   H827 
C768   H875 
C769   H828 
C769   H876 
Zn791   O885 
Zn791   O895 
Zn791   O896 
Zn791   O897 
Zn792   O885 
Zn792   O892 
Zn792   O900 
Zn792   O902 
Zn793   O885 
Zn793   O893 
Zn793   O898 
Zn793   O903 
Zn794   O885 
Zn794   O894 
Zn794   O899 
Zn794   O901 
H795   C843 
H796   C844 
H797   C845 
H798   C846 
H799   C847 
H800   C848 
H801   C861 
H802   C862 
H803   C863 
H804   C864 
H805   C865 
H806   C866 
H807   C861 
H808   C862 
H809   C863 
H810   C864 
H811   C865 
H812   C866 
H813   C867 
H814   C868 
H815   C869 
H816   C870 
H817   C871 
H818   C872 
H819   C867 
H820   C868 
H821   C869 
H822   C870 
H823   C871 
H824   C872 
H831   C879 
H832   C880 
H833   C881 
H834   C882 
H835   C883 
H836   C884 
C837   C843 
C837   C849 
C837   C856 
C838   C844 
C838   C850 
C838   C855 
C839   C845 
C839   C851 
C839   C858 
C840   C846 
C840   C852 
C840   C857 
C841   C847 
C841   C853 
C841   C860 
C842   C848 
C842   C854 
C842   C859 
C849   O886 
C850   O887 
C851   O888 
C852   O889 
C853   O890 
C854   O891 
C855   O892 
C855   O895 
C856   O898 
C856   O901 
C857   O893 
C857   O896 
C858   O899 
C858   O902 
C859   O894 
C859   O897 
C860   O900 
C860   O903 
C861   C867 
C861   C879 
C862   C868 
C862   C880 
C863   C869 
C863   C881 
C864   C870 
C864   C882 
C865   C871 
C865   C883 
C866   C872 
C866   C884 
C867   O886 
C868   O887 
C869   O888 
C870   O889 
C871   O890 
C872   O891 
  
#END  
