data_
_symmetry_cell_setting           triclinic 
_symmetry_space_group_name_H-M   'P 1' 
_symmetry_Int_Tables_number      1 
loop_ 
_symmetry_equiv_pos_site_id 
_symmetry_equiv_pos_as_xyz 
1 x,y,z 
_cell_length_a             10.622845        
_cell_length_b             18.612412        
_cell_length_c             18.998060        
_cell_angle_alpha          92.217587        
_cell_angle_beta           92.402837        
_cell_angle_gamma          90.367926        
loop_  
_atom_site_label   
_atom_site_type_symbol  
_atom_site_fract_x  
_atom_site_fract_y  
_atom_site_fract_z 
 Cu0  Cu    -0.017567      0.010977      0.068799 
 Cu1  Cu    -0.011475     -0.001830     -0.069416 
 O2  O    -0.152777      0.070216     -0.054206 
 C3  C    -0.167828      0.109757      0.000273 
 O4  O    -0.129323      0.093957      0.063042 
 O5  O     0.105929      0.080433     -0.053410 
 C6  C     0.132176      0.112615      0.008537 
 O7  O     0.117088      0.082100      0.065720 
 O8  O    -0.127634     -0.081207     -0.072200 
 C9  C    -0.162597     -0.098683     -0.012786 
 O10  O    -0.158785     -0.059790      0.044862 
 O11  O     0.144397     -0.069891     -0.042733 
 C12  C     0.149999     -0.099401      0.017263 
 O13  O     0.109318     -0.072140      0.073149 
 Cu14  Cu    -0.483050     -0.494339      0.068146 
 Cu15  Cu    -0.495371     -0.499261     -0.068425 
 O16  O     0.405687     -0.410835     -0.057411 
 C17  C     0.362848     -0.387447      0.001075 
 O18  O     0.366420     -0.424365      0.056108 
 O19  O    -0.344245     -0.428775     -0.061165 
 C20  C    -0.322870     -0.393774     -0.002236 
 O21  O    -0.352870     -0.413549      0.058953 
 O22  O     0.352130      0.432288     -0.055012 
 C23  C     0.345182      0.401882      0.003558 
 O24  O     0.388858      0.429175      0.063804 
 O25  O    -0.389066      0.415659     -0.063559 
 C26  C    -0.343472      0.400261     -0.002848 
 O27  O    -0.345610      0.439766      0.054105 
 C28  C    -0.379108      0.268218     -0.035721 
 C29  C    -0.303894      0.322462      0.001739 
 C30  C    -0.177654      0.308733      0.028831 
 C31  C    -0.137594      0.236406      0.025650 
 C32  C    -0.219940      0.182716     -0.005647 
 C33  C    -0.341358      0.197592     -0.033333 
 O34  O    -0.106472      0.364003      0.054140 
 C35  C     0.012081      0.352142      0.087499 
 C36  C     0.063085      0.419502      0.125354 
 C37  C     0.072301      0.492449      0.085030 
 C38  C    -0.059715     -0.488491      0.053065 
 O39  O    -0.411769      0.140533     -0.063944 
 C40  C     0.454351      0.146242     -0.072511 
 C41  C     0.397811      0.069370     -0.083098 
 C42  C     0.466191      0.011796     -0.127623 
 C43  C    -0.400712     -0.004954     -0.106629 
 H44  H    -0.043389      0.227873      0.044558 
 H45  H    -0.473561      0.280510     -0.059109 
 H46  H     0.404461      0.175668     -0.030491 
 H47  H     0.426276      0.176725     -0.119604 
 H48  H     0.017163      0.316399      0.133150 
 H49  H     0.078061      0.329803      0.049287 
 H50  H     0.388514      0.044887     -0.028804 
 H51  H     0.302589      0.076652     -0.105748 
 H52  H     0.001507      0.423754      0.171013 
 H53  H     0.157626      0.410262      0.150976 
 H54  H     0.108086     -0.464580      0.122196 
 H55  H     0.139577      0.482946      0.041217 
 H56  H     0.393125     -0.034932     -0.127776 
 H57  H     0.457908      0.027330     -0.179614 
 H58  H    -0.336750      0.039405     -0.112012 
 H59  H    -0.399179     -0.018961     -0.052998 
 H60  H    -0.371096     -0.051001     -0.140029 
 H61  H    -0.094860      0.473969      0.004877 
 H62  H    -0.141772     -0.487245      0.087951 
 H63  H    -0.055103     -0.434074      0.035971 
 N64  N    -0.042231     -0.015940      0.322793 
 C65  C    -0.113507     -0.081570      0.292675 
 C66  C    -0.102903      0.051372      0.298095 
 C67  C     0.086683     -0.011659      0.296214 
 C68  C    -0.093357      0.054664      0.215254 
 H69  H    -0.194229      0.050395      0.317178 
 H70  H    -0.052960      0.098260      0.324943 
 C71  C    -0.113900     -0.076934      0.209442 
 H72  H    -0.064669     -0.130354      0.304191 
 H73  H    -0.208137     -0.080909      0.313864 
 C74  C     0.089685     -0.019210      0.215660 
 H75  H     0.144847      0.038407      0.311930 
 H76  H     0.138440     -0.056827      0.318629 
 H77  H    -0.080056     -0.130008      0.185354 
 H78  H    -0.212279     -0.076129      0.190764 
 H79  H    -0.174099      0.074082      0.184457 
 H80  H    -0.030358      0.099844      0.205928 
 H81  H     0.119482     -0.073480      0.200889 
 N82  N    -0.038155     -0.013242      0.184224 
 H83  H     0.151448      0.019711      0.193005 
 C84  C     0.194610      0.221726     -0.056515 
 C85  C     0.193403      0.188966      0.009901 
 C86  C     0.246732      0.223523      0.074081 
 C87  C     0.294281      0.290950      0.067330 
 C88  C     0.297671      0.326497      0.002720 
 C89  C     0.238737      0.294525     -0.058113 
 O90  O     0.251102      0.193440      0.136904 
 C91  C     0.358177      0.153993      0.150437 
 C92  C     0.421358      0.163848      0.222651 
 C93  C     0.497263      0.237351      0.230036 
 C94  C    -0.402045      0.251661      0.172448 
 O95  O     0.215773      0.327510     -0.121349 
 C96  C     0.123257      0.382348     -0.132827 
 C97  C    -0.011779      0.352647     -0.138263 
 C98  C    -0.029899      0.288670     -0.197139 
 C99  C    -0.169156      0.272046     -0.201362 
 H100  H     0.338481      0.312965      0.114599 
 H101  H     0.150684      0.201548     -0.106059 
 H102  H     0.141916      0.424591     -0.093569 
 H103  H     0.153738      0.399353     -0.183594 
 H104  H     0.315373      0.100128      0.149500 
 H105  H     0.423441      0.158586      0.104925 
 H106  H    -0.033582      0.331108     -0.087870 
 H107  H    -0.079593      0.399388     -0.140883 
 H108  H     0.347515      0.167965      0.260846 
 H109  H     0.484919      0.117971      0.232249 
 H110  H     0.429807      0.282640      0.227662 
 H111  H    -0.448609      0.240848      0.282359 
 H112  H     0.023300      0.305422     -0.241975 
 H113  H     0.022656      0.240542     -0.183505 
 H114  H    -0.180911      0.220247     -0.236760 
 H115  H    -0.212002      0.254322     -0.154670 
 H116  H    -0.230677      0.315711     -0.223279 
 H117  H    -0.331374      0.209296      0.173562 
 H118  H    -0.441626      0.258316      0.117750 
 H119  H    -0.351669      0.301481      0.184221 
 C120  C     0.236543     -0.292480      0.065776 
 C121  C     0.305231     -0.314088      0.005888 
 C122  C     0.331716     -0.263770     -0.044478 
 C123  C     0.287231     -0.193493     -0.037181 
 C124  C     0.217804     -0.171026      0.021452 
 C125  C     0.194958     -0.219311      0.074434 
 O126  O     0.392548     -0.281757     -0.107256 
 C127  C     0.486410     -0.229041     -0.127164 
 C128  C    -0.428200     -0.265947     -0.180262 
 C129  C    -0.323797     -0.216373     -0.203397 
 C130  C    -0.221617     -0.260531     -0.242397 
 O131  O     0.126142     -0.197023      0.129457 
 C132  C     0.067536     -0.248228      0.177108 
 C133  C    -0.048194     -0.286916      0.144061 
 C134  C    -0.124324     -0.335949      0.189844 
 C135  C    -0.195415     -0.302381      0.251801 
 H136  H     0.289745     -0.154618     -0.078854 
 H137  H     0.223476     -0.327046      0.108123 
 H138  H     0.134891     -0.286173      0.196781 
 H139  H     0.049876     -0.224232      0.230206 
 H140  H     0.437798     -0.187175     -0.155798 
 H141  H    -0.462549     -0.203558     -0.080863 
 H142  H    -0.116823     -0.248423      0.119114 
 H143  H    -0.025488     -0.325391      0.101228 
 H144  H    -0.382418     -0.304803     -0.142966 
 H145  H    -0.487987     -0.293892     -0.223379 
 H146  H    -0.365917     -0.175062     -0.236386 
 H147  H    -0.287639     -0.187492     -0.155925 
 H148  H    -0.182993     -0.375675      0.160953 
 H149  H    -0.047497     -0.367798      0.215964 
 H150  H    -0.137074     -0.261392      0.281374 
 H151  H    -0.272107     -0.269779      0.232756 
 H152  H    -0.227605     -0.346573      0.284641 
 H153  H    -0.149426     -0.224002     -0.261214 
 H154  H    -0.162060     -0.297699     -0.207241 
 H155  H    -0.263553     -0.290790     -0.289647 
 N156  N    -0.470859      0.491372      0.315756 
 C157  C     0.423257      0.448712      0.285299 
 C158  C    -0.489855     -0.433884      0.297562 
 C159  C    -0.346652      0.466743      0.297802 
 C160  C    -0.492377     -0.433075      0.215225 
 H161  H     0.424664     -0.415740      0.322817 
 H162  H    -0.412649     -0.400073      0.319298 
 C163  C     0.427796      0.447704      0.203957 
 H164  H     0.437919      0.390773      0.297692 
 H165  H     0.328408      0.469400      0.302549 
 C166  C    -0.345728      0.473759      0.215675 
 H167  H    -0.271961     -0.493936      0.318945 
 H168  H    -0.310521      0.414714      0.309259 
 H169  H     0.461217      0.395699      0.183695 
 H170  H     0.334824      0.473739      0.181472 
 H171  H     0.414587     -0.419699      0.192481 
 H172  H    -0.423355     -0.393634      0.196695 
 H173  H    -0.317051      0.420050      0.192421 
 N174  N    -0.466989      0.495801      0.185592 
 H175  H    -0.260021     -0.494233      0.204632 
 C176  C    -0.131508     -0.228350     -0.044684 
 C177  C    -0.200528     -0.174623     -0.010758 
 C178  C    -0.297070     -0.197438      0.032576 
 C179  C    -0.318256     -0.269186      0.043399 
 C180  C    -0.263218     -0.321200     -0.001503 
 C181  C    -0.162769     -0.301286     -0.039939 
 O182  O    -0.363628     -0.146390      0.077026 
 C183  C    -0.480383     -0.170313      0.105863 
 C184  C     0.464369     -0.104186      0.140921 
 C185  C     0.455451     -0.031849      0.097017 
 C186  C    -0.437556      0.021474      0.105971 
 O187  O    -0.105908     -0.352012     -0.080214 
 C188  C     0.026714     -0.352056     -0.083884 
 C189  C     0.061049     -0.428137     -0.107831 
 C190  C     0.016668     -0.449686     -0.179735 
 C191  C    -0.128342     -0.465799     -0.186099 
 H192  H    -0.395141     -0.284103      0.074432 
 H193  H    -0.068905     -0.219112     -0.085576 
 H194  H     0.060776     -0.307683     -0.118249 
 H195  H     0.061345     -0.340164     -0.029948 
 H196  H     0.450061     -0.193957      0.067948 
 H197  H    -0.475019     -0.206743      0.145660 
 H198  H     0.160749     -0.427214     -0.097676 
 H199  H     0.020422     -0.470076     -0.072121 
 H200  H     0.368922     -0.124624      0.150554 
 H201  H     0.493788     -0.093177      0.194726 
 H202  H     0.429153     -0.047222      0.040864 
 H203  H     0.374306     -0.005658      0.125319 
 H204  H     0.026936     -0.410684     -0.216388 
 H205  H     0.074823     -0.496166     -0.198415 
 H206  H    -0.163047     -0.475184     -0.135927 
 H207  H    -0.179899     -0.418023     -0.204504 
 H208  H    -0.147542      0.488147     -0.226406 
 H209  H    -0.373965      0.003025      0.064608 
 H210  H    -0.459012      0.075585      0.093130 
 H211  H    -0.390323      0.028027      0.155762 
 Cu212  Cu     0.005852     -0.000384     -0.428067 
 Cu213  Cu     0.006549     -0.008362      0.436727 
 O214  O    -0.165705      0.046281      0.455896 
 C215  C    -0.181980      0.087128     -0.490735 
 O216  O    -0.144195      0.070846     -0.428347 
 O217  O     0.092049      0.084704      0.439489 
 C218  C     0.128506      0.116835      0.499829 
 O219  O     0.102881      0.089618     -0.442745 
 O220  O    -0.089625     -0.096416      0.443670 
 C221  C    -0.119872     -0.117591     -0.495011 
 O222  O    -0.102892     -0.084610     -0.434969 
 O223  O     0.157825     -0.066385      0.448311 
 C224  C     0.166877     -0.101675     -0.496851 
 O225  O     0.133397     -0.078556     -0.436614 
 Cu226  Cu    -0.491835     -0.496188     -0.435728 
 Cu227  Cu    -0.486399      0.491885      0.426882 
 O228  O     0.405298     -0.416047      0.436684 
 C229  C     0.363337     -0.389600      0.494392 
 O230  O     0.378754     -0.419673     -0.445777 
 O231  O    -0.333521     -0.441769      0.448658 
 C232  C    -0.314445     -0.405800     -0.493732 
 O233  O    -0.356653     -0.424964     -0.438327 
 O234  O     0.362033      0.430838      0.428011 
 C235  C     0.340002      0.406931      0.486807 
 O236  O     0.379669      0.430522     -0.452425 
 O237  O    -0.375342      0.404778      0.439344 
 C238  C    -0.346147      0.380700     -0.496623 
 O239  O    -0.368172      0.416464     -0.439155 
 C240  C    -0.362676      0.250647      0.460840 
 C241  C    -0.301400      0.304547     -0.495594 
 C242  C    -0.208825      0.286759     -0.446984 
 C243  C    -0.178657      0.213850     -0.441385 
 C244  C    -0.230541      0.160526     -0.491692 
 C245  C    -0.328966      0.178176      0.463268 
 O246  O    -0.153334      0.334973     -0.402576 
 C247  C    -0.027993      0.352538     -0.422964 
 C248  C     0.020990      0.421419     -0.386748 
 C249  C    -0.060114      0.490332     -0.399554 
 C250  C     0.002331     -0.439020     -0.369202 
 O251  O    -0.386354      0.121556      0.421907 
 C252  C     0.480979      0.129285      0.400684 
 C253  C     0.405200      0.061127      0.387962 
 C254  C     0.483189     -0.007538      0.369551 
 C255  C    -0.457489     -0.004336      0.298190 
 H256  H    -0.111778      0.201276     -0.398300 
 H257  H    -0.432517      0.263085      0.419412 
 H258  H     0.431233      0.168374      0.438133 
 H259  H     0.477915      0.159235      0.354392 
 H260  H     0.034857      0.307904     -0.411138 
 H261  H    -0.038867      0.358893     -0.480114 
 H262  H     0.362899      0.049748      0.437765 
 H263  H     0.322680      0.062506      0.351708 
 H264  H     0.031071      0.419496     -0.329596 
 H265  H     0.110144      0.438740     -0.406467 
 H266  H    -0.079323      0.490707     -0.454455 
 H267  H    -0.157139      0.490261     -0.378623 
 H268  H    -0.438655     -0.014630      0.411151 
 H269  H     0.414160     -0.053798      0.369930 
 H270  H    -0.383131      0.036352      0.288818 
 H271  H    -0.411832     -0.057032      0.285013 
 H272  H     0.471189     -0.000339      0.257640 
 H273  H     0.017356     -0.443625     -0.313225 
 H274  H     0.098544     -0.440842     -0.391867 
 H275  H    -0.058016     -0.394787     -0.386911 
 N276  N    -0.029175      0.016344     -0.178902 
 C277  C    -0.142361     -0.019188     -0.214311 
 C278  C    -0.019268      0.090051     -0.202490 
 C279  C     0.078996     -0.021730     -0.207694 
 C280  C    -0.026792      0.094393     -0.282298 
 H281  H    -0.091498      0.122633     -0.174220 
 H282  H     0.069310      0.114756     -0.184433 
 C283  C    -0.150744     -0.014232     -0.295447 
 H284  H    -0.140425     -0.076604     -0.198135 
 H285  H    -0.222164      0.001421     -0.193823 
 C286  C     0.071260     -0.019739     -0.290375 
 H287  H     0.168368      0.006287     -0.187269 
 H288  H     0.077589     -0.077212     -0.194065 
 H289  H    -0.154831     -0.069395     -0.315851 
 H290  H    -0.237690      0.010986     -0.318213 
 H291  H    -0.111394      0.122187     -0.299043 
 H292  H     0.050336      0.121050     -0.304463 
 H293  H     0.065959     -0.072097     -0.314649 
 N294  N    -0.037606      0.023218     -0.315403 
 H295  H     0.160634      0.006988     -0.305079 
 C296  C     0.261306      0.303720     -0.448703 
 C297  C     0.279151      0.331665      0.487302 
 C298  C     0.253186      0.284815      0.427695 
 C299  C     0.213057      0.213660      0.433850 
 C300  C     0.195892      0.187351      0.496966 
 C301  C     0.229547      0.231343     -0.440652 
 O302  O     0.246388      0.313722      0.362457 
 C303  C     0.120984      0.318773      0.324448 
 C304  C     0.060936      0.248040      0.304054 
 C305  C    -0.071468      0.255149      0.266213 
 C306  C    -0.169616      0.286974      0.318021 
 O307  O     0.213680      0.207926     -0.373504 
 C308  C     0.302214      0.152673     -0.352130 
 C309  C     0.361797      0.180782     -0.280336 
 C310  C     0.443652      0.250415     -0.283273 
 C311  C    -0.442034      0.230738     -0.329111 
 H312  H     0.180490      0.178935      0.386367 
 H313  H     0.299093      0.329632     -0.401484 
 H314  H     0.236536      0.107299     -0.346483 
 H315  H     0.365072      0.138131     -0.396080 
 H316  H     0.061435      0.355273      0.360121 
 H317  H     0.149732      0.340782      0.275324 
 H318  H     0.287741      0.186715     -0.239934 
 H319  H     0.415901      0.137138     -0.259089 
 H320  H     0.118666      0.215207      0.268721 
 H321  H     0.044943      0.216435      0.349676 
 H322  H    -0.063955      0.289606      0.221383 
 H323  H    -0.115306      0.204080      0.240366 
 H324  H     0.384683      0.291261     -0.309050 
 H325  H     0.473821      0.276089     -0.233270 
 H326  H    -0.386498      0.278059     -0.337304 
 H327  H    -0.387059      0.186544     -0.302934 
 H328  H    -0.471685      0.210885     -0.379915 
 H329  H    -0.258380      0.286007      0.288140 
 H330  H    -0.184892      0.257798      0.368086 
 H331  H    -0.145895      0.342958      0.333128 
 C332  C     0.252591     -0.204195      0.436004 
 C333  C     0.206562     -0.176868      0.496926 
 C334  C     0.208608     -0.217591     -0.441912 
 C335  C     0.262216     -0.287037     -0.444944 
 C336  C     0.312368     -0.315279      0.494207 
 C337  C     0.298066     -0.275492      0.432108 
 O338  O     0.153770     -0.196052     -0.380621 
 C339  C     0.060760     -0.244124     -0.353200 
 C340  C     0.109856     -0.275696     -0.283668 
 C341  C     0.159655     -0.218525     -0.230086 
 C342  C     0.263021     -0.162190     -0.249783 
 O343  O     0.330570     -0.309763      0.370979 
 C344  C     0.298565     -0.284013      0.305260 
 C345  C     0.376658     -0.221146      0.278892 
 C346  C    -0.477597     -0.228433      0.295061 
 C347  C    -0.411644     -0.204812      0.364697 
 H348  H     0.273308     -0.325584     -0.401078 
 H349  H     0.254033     -0.166561      0.388494 
 H350  H     0.298538     -0.324977      0.265524 
 H351  H     0.204580     -0.263865      0.313081 
 H352  H    -0.018541     -0.212461     -0.342265 
 H353  H     0.039067     -0.289250     -0.387787 
 H354  H     0.351598     -0.212805      0.224247 
 H355  H     0.359559     -0.170408      0.305819 
 H356  H     0.046261     -0.313579     -0.256205 
 H357  H     0.195160     -0.310947     -0.294725 
 H358  H     0.080042     -0.188749     -0.210088 
 H359  H     0.196511     -0.248074     -0.187469 
 H360  H    -0.464211     -0.286919      0.290697 
 H361  H    -0.422223     -0.202158      0.251349 
 H362  H    -0.442074     -0.227766      0.412611 
 H363  H    -0.300905     -0.206509      0.363762 
 H364  H    -0.426214     -0.144406      0.369106 
 H365  H     0.234041     -0.131269     -0.293285 
 H366  H     0.279805     -0.129111     -0.202153 
 H367  H     0.353439     -0.186396     -0.265368 
 N368  N     0.493379      0.490306     -0.187728 
 C369  C    -0.454372     -0.440696     -0.207394 
 C370  C    -0.433434      0.429432     -0.214928 
 C371  C     0.371802      0.481235     -0.225457 
 C372  C    -0.416632      0.438041     -0.293232 
 H373  H    -0.342917      0.428841     -0.182856 
 H374  H    -0.490168      0.384069     -0.199311 
 C375  C    -0.444441     -0.433129     -0.287639 
 H376  H     0.492055     -0.398860     -0.182529 
 H377  H    -0.359140     -0.430884     -0.183378 
 C378  C     0.380185      0.484757     -0.307457 
 H379  H     0.325226      0.435101     -0.207009 
 H380  H     0.306157     -0.472124     -0.207114 
 H381  H     0.495985     -0.390428     -0.310542 
 H382  H    -0.347851     -0.414660     -0.300429 
 H383  H    -0.318459      0.439581     -0.302554 
 H384  H    -0.439188      0.386145     -0.319526 
 H385  H     0.318023     -0.472397     -0.318840 
 N386  N    -0.485171      0.499728     -0.325014 
 H387  H     0.343502      0.435752     -0.334014 
 C388  C    -0.110946     -0.249181      0.462495 
 C389  C    -0.167248     -0.196289     -0.494374 
 C390  C    -0.271974     -0.209991     -0.455362 
 C391  C    -0.309158     -0.280409     -0.448629 
 C392  C    -0.252560     -0.334530     -0.489571 
 C393  C    -0.157020     -0.320668      0.465457 
 O394  O    -0.334423     -0.153417     -0.425552 
 C395  C    -0.450783     -0.162215     -0.392131 
 C396  C    -0.484807     -0.088353     -0.361288 
 C397  C     0.455432     -0.032046     -0.411011 
 C398  C    -0.448680      0.026961     -0.434847 
 O399  O    -0.107151     -0.368323      0.417947 
 C400  C    -0.004576     -0.404882      0.448979 
 C401  C    -0.000234     -0.479072      0.414182 
 C402  C    -0.001131     -0.478406      0.334072 
 C403  C     0.100245     -0.432617      0.299964 
 H404  H    -0.377380     -0.296279     -0.407674 
 H405  H    -0.030526     -0.238535      0.430935 
 H406  H     0.085696     -0.375251      0.438690 
 H407  H    -0.007665     -0.412396     -0.495174 
 H408  H     0.481040     -0.185810     -0.430709 
 H409  H    -0.431298     -0.203825     -0.354624 
 H410  H     0.083437      0.495270      0.436019 
 H411  H    -0.077277      0.490933      0.432219 
 H412  H     0.445205     -0.100268     -0.320570 
 H413  H    -0.395968     -0.066809     -0.344179 
 H414  H     0.418197     -0.058570     -0.463002 
 H415  H     0.370241     -0.010423     -0.384813 
 H416  H    -0.026135      0.469752      0.310454 
 H417  H    -0.085670     -0.445500      0.325110 
 H418  H     0.084059     -0.376669      0.313490 
 H419  H     0.195509     -0.439658      0.327733 
 H420  H     0.105726     -0.440966      0.243240 
 H421  H    -0.402385      0.062708     -0.393175 
 H422  H    -0.368176      0.005694     -0.462063 
 H423  H    -0.498617      0.064043     -0.469819 
loop_  
_geom_bond_atom_site_label_1  
_geom_bond_atom_site_label_2  
Cu0   Cu1 
Cu0   O4 
Cu0   O7 
Cu0   O10 
Cu0   O13 
Cu0   N82 
Cu1   O2 
Cu1   O5 
Cu1   O8 
Cu1   O11 
Cu1   N276 
O2   C3 
C3   O4 
C3   C32 
O5   C6 
C6   O7 
C6   C85 
O8   C9 
C9   O10 
C9   C177 
O11   C12 
C12   O13 
C12   C124 
Cu14   Cu15 
Cu14   O18 
Cu14   O21 
Cu14   O24 
Cu14   O27 
Cu14   N174 
Cu15   O16 
Cu15   O19 
Cu15   O22 
Cu15   O25 
Cu15   N368 
O16   C17 
C17   O18 
C17   C121 
O19   C20 
C20   O21 
C20   C180 
O22   C23 
C23   O24 
C23   C88 
O25   C26 
C26   O27 
C26   C29 
C28   C29 
C28   C33 
C28   H45 
C29   C30 
C30   C31 
C30   O34 
C31   C32 
C31   H44 
C32   C33 
C33   O39 
O34   C35 
C35   C36 
C35   H48 
C35   H49 
C36   C37 
C36   H52 
C36   H53 
C37   C38 
C37   H54 
C37   H55 
C38   H61 
C38   H62 
C38   H63 
O39   C40 
C40   C41 
C40   H46 
C40   H47 
C41   C42 
C41   H50 
C41   H51 
C42   C43 
C42   H56 
C42   H57 
C43   H58 
C43   H59 
C43   H60 
N64   C65 
N64   C66 
N64   C67 
N64   Cu213 
C65   C71 
C65   H72 
C65   H73 
C66   C68 
C66   H69 
C66   H70 
C67   C74 
C67   H75 
C67   H76 
C68   H79 
C68   H80 
C68   N82 
C71   H77 
C71   H78 
C71   N82 
C74   H81 
C74   N82 
C74   H83 
C84   C85 
C84   C89 
C84   H101 
C85   C86 
C86   C87 
C86   O90 
C87   C88 
C87   H100 
C88   C89 
C89   O95 
O90   C91 
C91   C92 
C91   H104 
C91   H105 
C92   C93 
C92   H108 
C92   H109 
C93   C94 
C93   H110 
C93   H111 
C94   H117 
C94   H118 
C94   H119 
O95   C96 
C96   C97 
C96   H102 
C96   H103 
C97   C98 
C97   H106 
C97   H107 
C98   C99 
C98   H112 
C98   H113 
C99   H114 
C99   H115 
C99   H116 
C120   C121 
C120   C125 
C120   H137 
C121   C122 
C122   C123 
C122   O126 
C123   C124 
C123   H136 
C124   C125 
C125   O131 
O126   C127 
C127   C128 
C127   H140 
C127   H141 
C128   C129 
C128   H144 
C128   H145 
C129   C130 
C129   H146 
C129   H147 
C130   H153 
C130   H154 
C130   H155 
O131   C132 
C132   C133 
C132   H138 
C132   H139 
C133   C134 
C133   H142 
C133   H143 
C134   C135 
C134   H148 
C134   H149 
C135   H150 
C135   H151 
C135   H152 
N156   C157 
N156   C158 
N156   C159 
N156   Cu227 
C157   C163 
C157   H164 
C157   H165 
C158   C160 
C158   H161 
C158   H162 
C159   C166 
C159   H167 
C159   H168 
C160   H171 
C160   H172 
C160   N174 
C163   H169 
C163   H170 
C163   N174 
C166   H173 
C166   N174 
C166   H175 
C176   C177 
C176   C181 
C176   H193 
C177   C178 
C178   C179 
C178   O182 
C179   C180 
C179   H192 
C180   C181 
C181   O187 
O182   C183 
C183   C184 
C183   H196 
C183   H197 
C184   C185 
C184   H200 
C184   H201 
C185   C186 
C185   H202 
C185   H203 
C186   H209 
C186   H210 
C186   H211 
O187   C188 
C188   C189 
C188   H194 
C188   H195 
C189   C190 
C189   H198 
C189   H199 
C190   C191 
C190   H204 
C190   H205 
C191   H206 
C191   H207 
C191   H208 
Cu212   Cu213 
Cu212   O216 
Cu212   O219 
Cu212   O222 
Cu212   O225 
Cu212   N294 
Cu213   O214 
Cu213   O217 
Cu213   O220 
Cu213   O223 
O214   C215 
C215   O216 
C215   C244 
O217   C218 
C218   O219 
C218   C300 
O220   C221 
C221   O222 
C221   C389 
O223   C224 
C224   O225 
C224   C333 
Cu226   Cu227 
Cu226   O230 
Cu226   O233 
Cu226   O236 
Cu226   O239 
Cu226   N386 
Cu227   O228 
Cu227   O231 
Cu227   O234 
Cu227   O237 
O228   C229 
C229   O230 
C229   C336 
O231   C232 
C232   O233 
C232   C392 
O234   C235 
C235   O236 
C235   C297 
O237   C238 
C238   O239 
C238   C241 
C240   C241 
C240   C245 
C240   H257 
C241   C242 
C242   C243 
C242   O246 
C243   C244 
C243   H256 
C244   C245 
C245   O251 
O246   C247 
C247   C248 
C247   H260 
C247   H261 
C248   C249 
C248   H264 
C248   H265 
C249   C250 
C249   H266 
C249   H267 
C250   H273 
C250   H274 
C250   H275 
O251   C252 
C252   C253 
C252   H258 
C252   H259 
C253   C254 
C253   H262 
C253   H263 
C254   C255 
C254   H268 
C254   H269 
C255   H270 
C255   H271 
C255   H272 
N276   C277 
N276   C278 
N276   C279 
C277   C283 
C277   H284 
C277   H285 
C278   C280 
C278   H281 
C278   H282 
C279   C286 
C279   H287 
C279   H288 
C280   H291 
C280   H292 
C280   N294 
C283   H289 
C283   H290 
C283   N294 
C286   H293 
C286   N294 
C286   H295 
C296   C297 
C296   C301 
C296   H313 
C297   C298 
C298   C299 
C298   O302 
C299   C300 
C299   H312 
C300   C301 
C301   O307 
O302   C303 
C303   C304 
C303   H316 
C303   H317 
C304   C305 
C304   H320 
C304   H321 
C305   C306 
C305   H322 
C305   H323 
C306   H329 
C306   H330 
C306   H331 
O307   C308 
C308   C309 
C308   H314 
C308   H315 
C309   C310 
C309   H318 
C309   H319 
C310   C311 
C310   H324 
C310   H325 
C311   H326 
C311   H327 
C311   H328 
C332   C333 
C332   C337 
C332   H349 
C333   C334 
C334   C335 
C334   O338 
C335   C336 
C335   H348 
C336   C337 
C337   O343 
O338   C339 
C339   C340 
C339   H352 
C339   H353 
C340   C341 
C340   H356 
C340   H357 
C341   C342 
C341   H358 
C341   H359 
C342   H365 
C342   H366 
C342   H367 
O343   C344 
C344   C345 
C344   H350 
C344   H351 
C345   C346 
C345   H354 
C345   H355 
C346   C347 
C346   H360 
C346   H361 
C347   H362 
C347   H363 
C347   H364 
N368   C369 
N368   C370 
N368   C371 
C369   C375 
C369   H376 
C369   H377 
C370   C372 
C370   H373 
C370   H374 
C371   C378 
C371   H379 
C371   H380 
C372   H383 
C372   H384 
C372   N386 
C375   H381 
C375   H382 
C375   N386 
C378   H385 
C378   N386 
C378   H387 
C388   C389 
C388   C393 
C388   H405 
C389   C390 
C390   C391 
C390   O394 
C391   C392 
C391   H404 
C392   C393 
C393   O399 
O394   C395 
C395   C396 
C395   H408 
C395   H409 
C396   C397 
C396   H412 
C396   H413 
C397   C398 
C397   H414 
C397   H415 
C398   H421 
C398   H422 
C398   H423 
O399   C400 
C400   C401 
C400   H406 
C400   H407 
C401   C402 
C401   H410 
C401   H411 
C402   C403 
C402   H416 
C402   H417 
C403   H418 
C403   H419 
C403   H420 
  
#END  
