data_
_symmetry_cell_setting           triclinic 
_symmetry_space_group_name_H-M   'P 1' 
_symmetry_Int_Tables_number      1 
loop_ 
_symmetry_equiv_pos_site_id 
_symmetry_equiv_pos_as_xyz 
1 x,y,z 
_cell_length_a             10.639681        
_cell_length_b             18.581958        
_cell_length_c             18.977263        
_cell_angle_alpha          88.877058        
_cell_angle_beta           88.554897        
_cell_angle_gamma          89.861197        
loop_  
_atom_site_label   
_atom_site_type_symbol  
_atom_site_fract_x  
_atom_site_fract_y  
_atom_site_fract_z 
 Cu0  Cu     0.016895      0.002770      0.071719 
 Cu1  Cu     0.018055      0.007732     -0.065335 
 O2  O    -0.123317      0.077445     -0.050993 
 C3  C    -0.138194      0.108985      0.007627 
 O4  O    -0.101480      0.085218      0.067088 
 O5  O     0.132134      0.089425     -0.057983 
 C6  C     0.167225      0.110965      0.001639 
 O7  O     0.153266      0.076325      0.059846 
 O8  O    -0.097003     -0.074477     -0.054699 
 C9  C    -0.134925     -0.099375      0.004908 
 O10  O    -0.120586     -0.069448      0.064043 
 O11  O     0.158168     -0.063574     -0.059776 
 C12  C     0.171898     -0.099400     -0.002593 
 O13  O     0.137346     -0.078135      0.058362 
 Cu14  Cu    -0.480974     -0.496757      0.061349 
 Cu15  Cu    -0.476187     -0.493259     -0.075703 
 O16  O     0.403010     -0.412708     -0.067258 
 C17  C     0.364151     -0.392332     -0.006809 
 O18  O     0.374435     -0.428942      0.050134 
 O19  O    -0.339261     -0.419770     -0.062485 
 C20  C    -0.331031     -0.387912     -0.003816 
 O21  O    -0.372277     -0.411971      0.055530 
 O22  O     0.385930      0.434552     -0.067622 
 C23  C     0.374459      0.398604     -0.010084 
 O24  O     0.409790      0.419546      0.049656 
 O25  O    -0.361883      0.422429     -0.064429 
 C26  C    -0.324308      0.400760     -0.004391 
 O27  O    -0.336203      0.435328      0.052740 
 C28  C    -0.342144      0.271624     -0.033564 
 C29  C    -0.274313      0.325367     -0.000463 
 C30  C    -0.163631      0.309301      0.035164 
 C31  C    -0.123433      0.237389      0.039994 
 C32  C    -0.190658      0.183790      0.006177 
 C33  C    -0.300557      0.199887     -0.030248 
 O34  O    -0.099809      0.365993      0.062287 
 C35  C     0.029462      0.357206      0.080488 
 C36  C     0.093240      0.430589      0.077266 
 C37  C     0.025929      0.490959      0.117680 
 C38  C     0.023300      0.479991      0.197850 
 O39  O    -0.362221      0.144079     -0.060754 
 C40  C    -0.486619      0.156451     -0.085741 
 C41  C     0.446806      0.086256     -0.102142 
 C42  C     0.492940      0.047472     -0.168711 
 C43  C    -0.373145      0.017981     -0.165135 
 H44  H    -0.038479      0.223489      0.068435 
 H45  H    -0.426834      0.285778     -0.062105 
 H46  H     0.459918      0.184578     -0.044324 
 H47  H    -0.481173      0.191940     -0.132863 
 H48  H     0.035614      0.332159      0.133310 
 H49  H     0.076331      0.321124      0.042766 
 H50  H     0.450652      0.048866     -0.056466 
 H51  H     0.346653      0.098595     -0.108509 
 H52  H     0.189150      0.425008      0.097016 
 H53  H     0.104410      0.447480      0.021574 
 H54  H     0.073453     -0.457807      0.104259 
 H55  H    -0.070850      0.496896      0.099001 
 H56  H     0.428882      0.002420     -0.178166 
 H57  H     0.485265      0.084261     -0.214505 
 H58  H    -0.364089     -0.021498     -0.121592 
 H59  H    -0.345931     -0.008492     -0.214451 
 H60  H    -0.305426      0.061098     -0.156700 
 H61  H    -0.024723     -0.474789      0.223533 
 H62  H    -0.027031      0.430623      0.213753 
 H63  H     0.118741      0.476356      0.218480 
 N64  N    -0.006111     -0.007188      0.322356 
 C65  C     0.056767     -0.072679      0.295790 
 C66  C    -0.134383     -0.004946      0.294259 
 C67  C     0.063688      0.056287      0.294346 
 C68  C    -0.129498     -0.006305      0.212029 
 H69  H    -0.189153     -0.050833      0.316177 
 H70  H    -0.181603      0.044261      0.312586 
 C71  C     0.064864     -0.071245      0.213462 
 H72  H     0.151479     -0.076581      0.317640 
 H73  H     0.003976     -0.120127      0.315785 
 C74  C     0.066372      0.057678      0.212154 
 H75  H     0.019813      0.105722      0.314935 
 H76  H     0.160360      0.054206      0.313910 
 H77  H     0.163888     -0.071316      0.194841 
 H78  H     0.020750     -0.119491      0.191938 
 H79  H    -0.177285     -0.054627      0.193214 
 H80  H    -0.179347      0.040505      0.189708 
 H81  H     0.164422      0.058759      0.191890 
 N82  N     0.002221     -0.006211      0.185009 
 H83  H     0.020074      0.106671      0.191669 
 C84  C     0.339238      0.281814      0.050838 
 C85  C     0.323346      0.323489     -0.010560 
 C86  C     0.258716      0.296119     -0.067608 
 C87  C     0.206687      0.226991     -0.060835 
 C88  C     0.220881      0.185643      0.001063 
 C89  C     0.286502      0.212923      0.057845 
 O90  O     0.251490      0.337221     -0.128201 
 C91  C     0.149300      0.326811     -0.174821 
 C92  C     0.193971      0.297506     -0.245625 
 C93  C     0.272973      0.228302     -0.242272 
 C94  C     0.297636      0.196454     -0.315116 
 O95  O     0.297733      0.171210      0.117762 
 C96  C     0.385471      0.191352      0.170033 
 C97  C     0.330196      0.248028      0.219245 
 C98  C     0.221900      0.220877      0.267373 
 C99  C     0.169414      0.279484      0.315496 
 H100  H     0.155960      0.204744     -0.104569 
 H101  H     0.393522      0.303407      0.093576 
 H102  H     0.408936      0.142155      0.200093 
 H103  H     0.473516      0.209618      0.143741 
 H104  H     0.076492      0.292319     -0.149971 
 H105  H     0.105634      0.379910     -0.183034 
 H106  H     0.405269      0.268119      0.252440 
 H107  H     0.296319      0.295024      0.189082 
 H108  H     0.110584      0.287415     -0.277071 
 H109  H     0.248124      0.339293     -0.274931 
 H110  H     0.362916      0.239691     -0.217382 
 H111  H     0.225174      0.187699     -0.208433 
 H112  H     0.146039      0.200559      0.234874 
 H113  H     0.254518      0.175064      0.299790 
 H114  H     0.243831      0.303142      0.346675 
 H115  H     0.126575      0.323331      0.284672 
 H116  H     0.098064      0.257640      0.352888 
 H117  H     0.209419      0.180281     -0.339008 
 H118  H     0.343201      0.235770     -0.351391 
 H119  H     0.357789      0.148427     -0.312125 
 C120  C     0.214919     -0.216846      0.056634 
 C121  C     0.222859     -0.175028     -0.005613 
 C122  C     0.271558     -0.205109     -0.067940 
 C123  C     0.319602     -0.275425     -0.065820 
 C124  C     0.311211     -0.317223     -0.003823 
 C125  C     0.256704     -0.288598      0.057666 
 O126  O     0.271145     -0.166318     -0.130086 
 C127  C     0.255740     -0.205335     -0.194067 
 C128  C     0.130309     -0.244775     -0.190762 
 C129  C     0.114288     -0.300734     -0.248228 
 C130  C     0.126127     -0.270035     -0.323465 
 O131  O     0.245958     -0.333005      0.115894 
 C132  C     0.193502     -0.307896      0.181161 
 C133  C     0.290974     -0.264730      0.219581 
 C134  C     0.249327     -0.245085      0.294625 
 C135  C     0.354487     -0.210131      0.335541 
 H136  H     0.363830     -0.297715     -0.113100 
 H137  H     0.173052     -0.193917      0.104237 
 H138  H     0.107497     -0.276534      0.171742 
 H139  H     0.165661     -0.356015      0.212526 
 H140  H     0.258135     -0.165715     -0.237982 
 H141  H     0.334567     -0.242498     -0.203449 
 H142  H     0.379680     -0.295002      0.221912 
 H143  H     0.312889     -0.215001      0.189529 
 H144  H     0.116273     -0.272190     -0.139325 
 H145  H     0.054761     -0.204700     -0.193428 
 H146  H     0.183972     -0.343959     -0.241171 
 H147  H     0.021737     -0.326292     -0.240370 
 H148  H     0.167600     -0.208865      0.292549 
 H149  H     0.217108     -0.293926      0.323392 
 H150  H     0.396934     -0.164693      0.305858 
 H151  H     0.319516     -0.189855      0.386324 
 H152  H     0.429057     -0.249267      0.346967 
 H153  H     0.112339     -0.312072     -0.362474 
 H154  H     0.056960     -0.227283     -0.333554 
 H155  H     0.219916     -0.247075     -0.333326 
 N156  N     0.499339      0.499320      0.311418 
 C157  C     0.456240      0.429560      0.284653 
 C158  C     0.418511     -0.443183      0.282276 
 C159  C    -0.370114     -0.488332      0.285101 
 C160  C     0.422983     -0.444409      0.200066 
 H161  H     0.321207     -0.450537      0.302591 
 H162  H     0.450910     -0.390825      0.301266 
 C163  C     0.465955      0.429246      0.202497 
 H164  H    -0.487194      0.385680      0.307750 
 H165  H     0.358109      0.420494      0.302709 
 C166  C    -0.364250     -0.485680      0.202958 
 H167  H    -0.334702     -0.437675      0.306223 
 H168  H    -0.309358      0.468363      0.305507 
 H169  H    -0.469182      0.386908      0.183977 
 H170  H     0.373347      0.417674      0.180610 
 H171  H     0.328693     -0.455446      0.180055 
 H172  H     0.453429     -0.391942      0.177691 
 H173  H    -0.295257      0.475519      0.181848 
 N174  N    -0.489368      0.499666      0.174497 
 H175  H    -0.333206     -0.432125      0.183991 
 C176  C    -0.343075     -0.262974      0.038912 
 C177  C    -0.278633     -0.313307     -0.002791 
 C178  C    -0.168173     -0.294261     -0.040335 
 C179  C    -0.125255     -0.223421     -0.038484 
 C180  C    -0.188490     -0.173522      0.003948 
 C181  C    -0.297112     -0.192404      0.043169 
 O182  O    -0.099483     -0.341914     -0.079266 
 C183  C    -0.020120     -0.388883     -0.038941 
 C184  C     0.069545     -0.428346     -0.088808 
 C185  C     0.003638     -0.471815     -0.145019 
 C186  C    -0.076676      0.466283     -0.114446 
 O187  O    -0.352480     -0.139924      0.083256 
 C188  C    -0.475864     -0.151855      0.112898 
 C189  C     0.481008     -0.086980      0.155344 
 C190  C     0.454987     -0.017522      0.112496 
 C191  C    -0.427721      0.020130      0.081073 
 H192  H    -0.040402     -0.208624     -0.068811 
 H193  H    -0.428764     -0.278837      0.068000 
 H194  H     0.459248     -0.162025      0.069884 
 H195  H    -0.473460     -0.200061      0.147516 
 H196  H     0.032719     -0.356841     -0.001468 
 H197  H    -0.079178     -0.427061     -0.007878 
 H198  H     0.394120     -0.101609      0.184826 
 H199  H    -0.448945     -0.075798      0.195423 
 H200  H     0.133193     -0.389193     -0.115145 
 H201  H     0.130796     -0.464399     -0.058212 
 H202  H    -0.056311     -0.435451     -0.176023 
 H203  H     0.074827     -0.493055     -0.182199 
 H204  H     0.389920     -0.029280      0.069981 
 H205  H     0.404085      0.020303      0.146871 
 H206  H    -0.359508      0.031767      0.121744 
 H207  H    -0.379632     -0.012440      0.040848 
 H208  H    -0.452766      0.071644      0.055718 
 H209  H    -0.150484      0.486376     -0.078423 
 H210  H    -0.123823      0.437664     -0.156302 
 H211  H    -0.020235      0.427089     -0.084773 
 Cu212  Cu    -0.015002      0.000161     -0.426795 
 Cu213  Cu    -0.014761     -0.000539      0.436159 
 O214  O    -0.126700      0.083202      0.440624 
 C215  C    -0.159134      0.108989     -0.499998 
 O216  O    -0.142084      0.078546     -0.440283 
 O217  O     0.129758      0.068596      0.443818 
 C218  C     0.146966      0.100360     -0.498298 
 O219  O     0.111785      0.077094     -0.437526 
 O220  O    -0.159149     -0.068292      0.452379 
 C221  C    -0.177115     -0.101222     -0.488563 
 O222  O    -0.142353     -0.078236     -0.429496 
 O223  O     0.093912     -0.085229      0.445567 
 C224  C     0.128550     -0.108662     -0.494560 
 O225  O     0.116221     -0.075762     -0.436532 
 Cu226  Cu     0.483551      0.498957     -0.439129 
 Cu227  Cu     0.478881     -0.498222      0.423915 
 O228  O     0.333308     -0.430293      0.441372 
 C229  C     0.322007     -0.398331     -0.499970 
 O230  O     0.361393     -0.422086     -0.441156 
 O231  O    -0.410721     -0.412823      0.425860 
 C232  C    -0.374209     -0.390433      0.484756 
 O233  O    -0.384812     -0.425519     -0.456971 
 O234  O     0.372148      0.415129      0.437653 
 C235  C     0.336915      0.391009      0.498194 
 O236  O     0.350569      0.423025     -0.443614 
 O237  O    -0.376456      0.432882      0.427801 
 C238  C    -0.359923      0.398945      0.485728 
 O239  O    -0.390251      0.422427     -0.453588 
 C240  C    -0.320979      0.284696     -0.450724 
 C241  C    -0.310793      0.323025      0.485170 
 C242  C    -0.255479      0.290845      0.425629 
 C243  C    -0.207174      0.220755      0.432410 
 C244  C    -0.213610      0.183586      0.497339 
 C245  C    -0.270797      0.215270     -0.443595 
 O246  O    -0.256411      0.326737      0.361924 
 C247  C    -0.155724      0.315845      0.311343 
 C248  C    -0.207971      0.319063      0.237485 
 C249  C    -0.305020      0.260868      0.221861 
 C250  C    -0.250362      0.184602      0.218669 
 O251  O    -0.274275      0.177946     -0.380616 
 C252  C    -0.371228      0.194307     -0.329642 
 C253  C    -0.331188      0.252951     -0.279778 
 C254  C    -0.226982      0.229926     -0.229931 
 C255  C    -0.182292      0.291755     -0.184956 
 H256  H    -0.166776      0.194006      0.386451 
 H257  H    -0.368470      0.309370     -0.405706 
 H258  H    -0.456930      0.209626     -0.357522 
 H259  H    -0.392383      0.144046     -0.300098 
 H260  H    -0.087901      0.359576      0.318271 
 H261  H    -0.104539      0.265184      0.319601 
 H262  H    -0.299105      0.301278     -0.309228 
 H263  H    -0.413826      0.269745     -0.248044 
 H264  H    -0.250055      0.372291      0.228100 
 H265  H    -0.129650      0.314770      0.198959 
 H266  H    -0.381702      0.262416      0.261782 
 H267  H    -0.347470      0.274334      0.170922 
 H268  H    -0.261342      0.185565     -0.195392 
 H269  H    -0.146647      0.208784     -0.260756 
 H270  H    -0.118105      0.272139     -0.144413 
 H271  H    -0.133417      0.332984     -0.217535 
 H272  H    -0.261586      0.318010     -0.157609 
 H273  H    -0.176875      0.180885      0.177171 
 H274  H    -0.208563      0.168079      0.268724 
 H275  H    -0.323510      0.145275      0.206854 
 N276  N     0.028914      0.012985     -0.179185 
 C277  C     0.155452      0.004966     -0.211821 
 C278  C    -0.049151     -0.048038     -0.200606 
 C279  C    -0.026049      0.080302     -0.207492 
 C280  C    -0.055226     -0.051651     -0.282354 
 H281  H    -0.010334     -0.098321     -0.178468 
 H282  H    -0.144425     -0.041673     -0.177641 
 C283  C     0.147476      0.003048     -0.293755 
 H284  H     0.214576      0.050053     -0.195701 
 H285  H     0.199146     -0.044649     -0.191230 
 C286  C    -0.038327      0.076637     -0.289128 
 H287  H    -0.118430      0.089428     -0.181980 
 H288  H     0.033728      0.125822     -0.193136 
 H289  H     0.201919      0.047510     -0.318540 
 H290  H     0.188568     -0.047328     -0.313761 
 H291  H    -0.014750     -0.102561     -0.301459 
 H292  H    -0.153793     -0.049579     -0.298947 
 H293  H     0.009323      0.122587     -0.315845 
 N294  N     0.015252      0.008597     -0.315756 
 H295  H    -0.138141      0.079583     -0.303223 
 C296  C     0.129140      0.227830     -0.464994 
 C297  C     0.198933      0.175120      0.499453 
 C298  C     0.312696      0.191797      0.464138 
 C299  C     0.355900      0.263220      0.464170 
 C300  C     0.286372      0.315832      0.499962 
 C301  C     0.172378      0.299088     -0.465174 
 O302  O     0.377825      0.136682      0.432829 
 C303  C     0.495405      0.153008      0.397831 
 C304  C    -0.435386      0.085724      0.373353 
 C305  C     0.489244      0.034359      0.328076 
 C306  C     0.404744     -0.018039      0.370798 
 O307  O     0.107924      0.354327     -0.434131 
 C308  C    -0.019677      0.342888     -0.410892 
 C309  C    -0.079213      0.415293     -0.394160 
 C310  C     0.001250      0.463825     -0.348780 
 C311  C    -0.065171     -0.465900     -0.329201 
 H312  H     0.443415      0.278334      0.436446 
 H313  H     0.041165      0.213264     -0.437445 
 H314  H    -0.070937      0.316922     -0.453121 
 H315  H    -0.022319      0.306700     -0.364258 
 H316  H     0.477721      0.189328      0.352596 
 H317  H    -0.445687      0.181584      0.434915 
 H318  H    -0.099356      0.444088     -0.443892 
 H319  H    -0.171044      0.406016     -0.367649 
 H320  H    -0.351769      0.103805      0.342854 
 H321  H    -0.398871      0.055700      0.419089 
 H322  H     0.431852      0.065849      0.291197 
 H323  H    -0.444488      0.003135      0.295278 
 H324  H     0.027633      0.434317     -0.300509 
 H325  H     0.089857      0.476618     -0.377632 
 H326  H    -0.148510     -0.476322     -0.295262 
 H327  H    -0.002039     -0.430782     -0.300698 
 H328  H    -0.095693     -0.436034     -0.376341 
 H329  H     0.351419     -0.052071      0.335755 
 H330  H     0.460101     -0.053764      0.404943 
 H331  H     0.336201      0.009991      0.404727 
 C332  C     0.333953     -0.272135     -0.460804 
 C333  C     0.269131     -0.323706     -0.498846 
 C334  C     0.157482     -0.305964      0.467134 
 C335  C     0.113457     -0.235146      0.468344 
 C336  C     0.177843     -0.183897     -0.493332 
 C337  C     0.286857     -0.201621     -0.456988 
 O338  O     0.089449     -0.355066      0.431786 
 C339  C     0.007092     -0.398744      0.475635 
 C340  C    -0.080366     -0.440314      0.429021 
 C341  C    -0.012803     -0.488783      0.375485 
 C342  C     0.062985      0.449921      0.409048 
 O343  O     0.337906     -0.148096     -0.418250 
 C344  C     0.467149     -0.150699     -0.399419 
 C345  C     0.491044     -0.088816     -0.349928 
 C346  C     0.458726     -0.013455     -0.379304 
 C347  C    -0.450913      0.013099     -0.438165 
 H348  H     0.028201     -0.221450      0.440207 
 H349  H     0.419627     -0.286944     -0.433624 
 H350  H     0.488721     -0.202311     -0.372937 
 H351  H    -0.474428     -0.146145     -0.447989 
 H352  H     0.063485     -0.435462     -0.491543 
 H353  H    -0.047381     -0.363785     -0.488587 
 H354  H     0.437332     -0.098253     -0.300252 
 H355  H    -0.409111     -0.089529     -0.336081 
 H356  H    -0.145360     -0.473238      0.462195 
 H357  H    -0.139851     -0.401710      0.400323 
 H358  H    -0.083515      0.488403      0.341052 
 H359  H     0.049973     -0.455597      0.341282 
 H360  H     0.362065     -0.012915     -0.398798 
 H361  H     0.459568      0.024973     -0.335945 
 H362  H    -0.476513      0.067478     -0.456597 
 H363  H    -0.353906      0.015245     -0.419803 
 H364  H    -0.451634     -0.022408     -0.483719 
 H365  H     0.134683      0.470626      0.443997 
 H366  H     0.002054      0.413046      0.440219 
 H367  H     0.112499      0.418337      0.368702 
 N368  N     0.495397     -0.494618     -0.188187 
 C369  C     0.363036     -0.487685     -0.209872 
 C370  C    -0.432599     -0.434156     -0.220868 
 C371  C    -0.453228      0.437273     -0.216036 
 C372  C    -0.442691     -0.434877     -0.302814 
 H373  H    -0.468758     -0.383030     -0.199723 
 H374  H    -0.333482     -0.438517     -0.205523 
 C375  C     0.353984     -0.489636     -0.291802 
 H376  H     0.306954      0.468593     -0.184970 
 H377  H     0.324019     -0.436867     -0.189718 
 C378  C    -0.461431      0.436397     -0.297969 
 H379  H    -0.354612      0.431449     -0.200327 
 H380  H     0.494473      0.391628     -0.191658 
 H381  H     0.295739      0.464788     -0.307784 
 H382  H     0.308427     -0.440352     -0.312107 
 H383  H    -0.485532     -0.384497     -0.322554 
 H384  H    -0.348342     -0.438594     -0.327762 
 H385  H     0.483181      0.389935     -0.314804 
 N386  N     0.480557     -0.496457     -0.324942 
 H387  H    -0.366631      0.430906     -0.321962 
 C388  C    -0.289724     -0.292866     -0.444275 
 C389  C    -0.321799     -0.315481      0.488726 
 C390  C    -0.309687     -0.268176      0.430299 
 C391  C    -0.268043     -0.197703      0.441194 
 C392  C    -0.234624     -0.175150     -0.491769 
 C393  C    -0.247851     -0.222536     -0.433131 
 O394  O    -0.339415     -0.292002      0.364673 
 C395  C    -0.318732     -0.246373      0.303316 
 C396  C    -0.178834     -0.243052      0.283646 
 C397  C    -0.126368     -0.312776      0.252221 
 C398  C    -0.155230     -0.320791      0.173958 
 O399  O    -0.221262     -0.201307     -0.366041 
 C400  C    -0.229039     -0.254955     -0.310085 
 C401  C    -0.194664     -0.224409     -0.239439 
 C402  C    -0.292237     -0.174362     -0.205086 
 C403  C    -0.414236     -0.212061     -0.181428 
 H404  H    -0.258827     -0.160189      0.396437 
 H405  H    -0.299370     -0.330864     -0.399936 
 H406  H    -0.325000     -0.276927     -0.306506 
 H407  H    -0.163638     -0.299052     -0.323309 
 H408  H    -0.371899     -0.269672      0.260302 
 H409  H    -0.358904     -0.192514      0.312089 
 H410  H    -0.175487     -0.269117     -0.202243 
 H411  H    -0.106022     -0.195029     -0.246930 
 H412  H    -0.162233     -0.198385      0.245566 
 H413  H    -0.124121     -0.230206      0.330234 
 H414  H    -0.024260     -0.314344      0.259437 
 H415  H    -0.163806     -0.359345      0.282597 
 H416  H    -0.250574     -0.150006     -0.158702 
 H417  H    -0.313085     -0.129584     -0.241633 
 H418  H    -0.462779     -0.234529     -0.226318 
 H419  H    -0.396077     -0.256138     -0.143488 
 H420  H    -0.478354     -0.173929     -0.155298 
 H421  H    -0.116917     -0.371274      0.153118 
 H422  H    -0.256884     -0.320762      0.165357 
 H423  H    -0.114555     -0.276444      0.141736 
loop_  
_geom_bond_atom_site_label_1  
_geom_bond_atom_site_label_2  
Cu0   Cu1 
Cu0   O4 
Cu0   O7 
Cu0   O10 
Cu0   O13 
Cu0   N82 
Cu1   O2 
Cu1   O5 
Cu1   O8 
Cu1   O11 
Cu1   N276 
O2   C3 
C3   O4 
C3   C32 
O5   C6 
C6   O7 
C6   C88 
O8   C9 
C9   O10 
C9   C180 
O11   C12 
C12   O13 
C12   C121 
Cu14   Cu15 
Cu14   O18 
Cu14   O21 
Cu14   O24 
Cu14   O27 
Cu14   N174 
Cu15   O16 
Cu15   O19 
Cu15   O22 
Cu15   O25 
Cu15   N368 
O16   C17 
C17   O18 
C17   C124 
O19   C20 
C20   O21 
C20   C177 
O22   C23 
C23   O24 
C23   C85 
O25   C26 
C26   O27 
C26   C29 
C28   C29 
C28   C33 
C28   H45 
C29   C30 
C30   C31 
C30   O34 
C31   C32 
C31   H44 
C32   C33 
C33   O39 
O34   C35 
C35   C36 
C35   H48 
C35   H49 
C36   C37 
C36   H52 
C36   H53 
C37   C38 
C37   H54 
C37   H55 
C38   H61 
C38   H62 
C38   H63 
O39   C40 
C40   C41 
C40   H46 
C40   H47 
C41   C42 
C41   H50 
C41   H51 
C42   C43 
C42   H56 
C42   H57 
C43   H58 
C43   H59 
C43   H60 
N64   C65 
N64   C66 
N64   C67 
N64   Cu213 
C65   C71 
C65   H72 
C65   H73 
C66   C68 
C66   H69 
C66   H70 
C67   C74 
C67   H75 
C67   H76 
C68   H79 
C68   H80 
C68   N82 
C71   H77 
C71   H78 
C71   N82 
C74   H81 
C74   N82 
C74   H83 
C84   C85 
C84   C89 
C84   H101 
C85   C86 
C86   C87 
C86   O90 
C87   C88 
C87   H100 
C88   C89 
C89   O95 
O90   C91 
C91   C92 
C91   H104 
C91   H105 
C92   C93 
C92   H108 
C92   H109 
C93   C94 
C93   H110 
C93   H111 
C94   H117 
C94   H118 
C94   H119 
O95   C96 
C96   C97 
C96   H102 
C96   H103 
C97   C98 
C97   H106 
C97   H107 
C98   C99 
C98   H112 
C98   H113 
C99   H114 
C99   H115 
C99   H116 
C120   C121 
C120   C125 
C120   H137 
C121   C122 
C122   C123 
C122   O126 
C123   C124 
C123   H136 
C124   C125 
C125   O131 
O126   C127 
C127   C128 
C127   H140 
C127   H141 
C128   C129 
C128   H144 
C128   H145 
C129   C130 
C129   H146 
C129   H147 
C130   H153 
C130   H154 
C130   H155 
O131   C132 
C132   C133 
C132   H138 
C132   H139 
C133   C134 
C133   H142 
C133   H143 
C134   C135 
C134   H148 
C134   H149 
C135   H150 
C135   H151 
C135   H152 
N156   C157 
N156   C158 
N156   C159 
N156   Cu227 
C157   C163 
C157   H164 
C157   H165 
C158   C160 
C158   H161 
C158   H162 
C159   C166 
C159   H167 
C159   H168 
C160   H171 
C160   H172 
C160   N174 
C163   H169 
C163   H170 
C163   N174 
C166   H173 
C166   N174 
C166   H175 
C176   C177 
C176   C181 
C176   H193 
C177   C178 
C178   C179 
C178   O182 
C179   C180 
C179   H192 
C180   C181 
C181   O187 
O182   C183 
C183   C184 
C183   H196 
C183   H197 
C184   C185 
C184   H200 
C184   H201 
C185   C186 
C185   H202 
C185   H203 
C186   H209 
C186   H210 
C186   H211 
O187   C188 
C188   C189 
C188   H194 
C188   H195 
C189   C190 
C189   H198 
C189   H199 
C190   C191 
C190   H204 
C190   H205 
C191   H206 
C191   H207 
C191   H208 
Cu212   Cu213 
Cu212   O216 
Cu212   O219 
Cu212   O222 
Cu212   O225 
Cu212   N294 
Cu213   O214 
Cu213   O217 
Cu213   O220 
Cu213   O223 
O214   C215 
C215   O216 
C215   C244 
O217   C218 
C218   O219 
C218   C297 
O220   C221 
C221   O222 
C221   C392 
O223   C224 
C224   O225 
C224   C336 
Cu226   Cu227 
Cu226   O230 
Cu226   O233 
Cu226   O236 
Cu226   O239 
Cu226   N386 
Cu227   O228 
Cu227   O231 
Cu227   O234 
Cu227   O237 
O228   C229 
C229   O230 
C229   C333 
O231   C232 
C232   O233 
C232   C389 
O234   C235 
C235   O236 
C235   C300 
O237   C238 
C238   O239 
C238   C241 
C240   C241 
C240   C245 
C240   H257 
C241   C242 
C242   C243 
C242   O246 
C243   C244 
C243   H256 
C244   C245 
C245   O251 
O246   C247 
C247   C248 
C247   H260 
C247   H261 
C248   C249 
C248   H264 
C248   H265 
C249   C250 
C249   H266 
C249   H267 
C250   H273 
C250   H274 
C250   H275 
O251   C252 
C252   C253 
C252   H258 
C252   H259 
C253   C254 
C253   H262 
C253   H263 
C254   C255 
C254   H268 
C254   H269 
C255   H270 
C255   H271 
C255   H272 
N276   C277 
N276   C278 
N276   C279 
C277   C283 
C277   H284 
C277   H285 
C278   C280 
C278   H281 
C278   H282 
C279   C286 
C279   H287 
C279   H288 
C280   H291 
C280   H292 
C280   N294 
C283   H289 
C283   H290 
C283   N294 
C286   H293 
C286   N294 
C286   H295 
C296   C297 
C296   C301 
C296   H313 
C297   C298 
C298   C299 
C298   O302 
C299   C300 
C299   H312 
C300   C301 
C301   O307 
O302   C303 
C303   C304 
C303   H316 
C303   H317 
C304   C305 
C304   H320 
C304   H321 
C305   C306 
C305   H322 
C305   H323 
C306   H329 
C306   H330 
C306   H331 
O307   C308 
C308   C309 
C308   H314 
C308   H315 
C309   C310 
C309   H318 
C309   H319 
C310   C311 
C310   H324 
C310   H325 
C311   H326 
C311   H327 
C311   H328 
C332   C333 
C332   C337 
C332   H349 
C333   C334 
C334   C335 
C334   O338 
C335   C336 
C335   H348 
C336   C337 
C337   O343 
O338   C339 
C339   C340 
C339   H352 
C339   H353 
C340   C341 
C340   H356 
C340   H357 
C341   C342 
C341   H358 
C341   H359 
C342   H365 
C342   H366 
C342   H367 
O343   C344 
C344   C345 
C344   H350 
C344   H351 
C345   C346 
C345   H354 
C345   H355 
C346   C347 
C346   H360 
C346   H361 
C347   H362 
C347   H363 
C347   H364 
N368   C369 
N368   C370 
N368   C371 
C369   C375 
C369   H376 
C369   H377 
C370   C372 
C370   H373 
C370   H374 
C371   C378 
C371   H379 
C371   H380 
C372   H383 
C372   H384 
C372   N386 
C375   H381 
C375   H382 
C375   N386 
C378   H385 
C378   N386 
C378   H387 
C388   C389 
C388   C393 
C388   H405 
C389   C390 
C390   C391 
C390   O394 
C391   C392 
C391   H404 
C392   C393 
C393   O399 
O394   C395 
C395   C396 
C395   H408 
C395   H409 
C396   C397 
C396   H412 
C396   H413 
C397   C398 
C397   H414 
C397   H415 
C398   H421 
C398   H422 
C398   H423 
O399   C400 
C400   C401 
C400   H406 
C400   H407 
C401   C402 
C401   H410 
C401   H411 
C402   C403 
C402   H416 
C402   H417 
C403   H418 
C403   H419 
C403   H420 
  
#END  
