data_
_symmetry_cell_setting           triclinic 
_symmetry_space_group_name_H-M   'P 1' 
_symmetry_Int_Tables_number      1 
loop_ 
_symmetry_equiv_pos_site_id 
_symmetry_equiv_pos_as_xyz 
1 x,y,z 
_cell_length_a             16.198853        
_cell_length_b             14.582333        
_cell_length_c             19.128521        
_cell_angle_alpha          93.145248        
_cell_angle_beta           85.947978        
_cell_angle_gamma          89.461918        
loop_  
_atom_site_label   
_atom_site_type_symbol  
_atom_site_fract_x  
_atom_site_fract_y  
_atom_site_fract_z 
 Cu0  Cu    -0.012473      0.004384      0.072600 
 Cu1  Cu    -0.002711     -0.004210     -0.064147 
 O2  O    -0.096532      0.083624     -0.053499 
 C3  C    -0.119847      0.123556      0.005579 
 O4  O    -0.088396      0.110719      0.063512 
 O5  O     0.079216      0.097752     -0.051632 
 C6  C     0.109787      0.117544      0.007031 
 O7  O     0.084314      0.086102      0.065360 
 O8  O    -0.084810     -0.105686     -0.053455 
 C9  C    -0.125270     -0.116988      0.005068 
 O10  O    -0.108648     -0.079002      0.063828 
 O11  O     0.088606     -0.093600     -0.057829 
 C12  C     0.104836     -0.123810      0.000948 
 O13  O     0.067020     -0.101180      0.060114 
 Cu14  Cu     0.488773     -0.494895      0.065614 
 Cu15  Cu     0.497603      0.494980     -0.071103 
 O16  O     0.416741     -0.400837     -0.058221 
 C17  C     0.380768     -0.376268      0.001400 
 O18  O     0.396724     -0.407321      0.059962 
 O19  O    -0.409549     -0.417425     -0.062118 
 C20  C    -0.393618     -0.377585     -0.003765 
 O21  O    -0.431553     -0.391297      0.055365 
 O22  O     0.404311      0.408253     -0.062105 
 C23  C     0.381205      0.376049     -0.003480 
 O24  O     0.410384      0.399655      0.055055 
 O25  O    -0.424244      0.390045     -0.062454 
 C26  C    -0.394266      0.377010     -0.003964 
 O27  O    -0.416493      0.419182      0.054432 
 C28  C    -0.250129      0.170131     -0.044618 
 C29  C    -0.192127      0.188354      0.005256 
 C30  C    -0.200745      0.265998      0.051939 
 C31  C    -0.269155      0.324803      0.049055 
 C32  C    -0.326668      0.307020     -0.001145 
 C33  C    -0.318980      0.228208     -0.046904 
 O34  O    -0.141317      0.282264      0.098345 
 C35  C    -0.131289      0.374368      0.126331 
 C36  C    -0.048327      0.379786      0.158947 
 C37  C     0.026189      0.347358      0.109153 
 C38  C     0.038473      0.400821      0.042532 
 O39  O    -0.373949      0.205834     -0.096045 
 C40  C    -0.456910      0.184816     -0.070224 
 C41  C    -0.460577      0.087596     -0.044489 
 C42  C    -0.437183      0.011621     -0.101638 
 C43  C    -0.440637     -0.085253     -0.074111 
 H44  H    -0.276350      0.385747      0.084831 
 H45  H    -0.244035      0.110051     -0.081275 
 H46  H    -0.479284      0.234654     -0.027624 
 H47  H    -0.497380      0.192456     -0.113489 
 H48  H    -0.134035      0.422849      0.084287 
 H49  H    -0.182249      0.391697      0.166237 
 H50  H    -0.419689      0.082240     -0.001188 
 H51  H     0.476284      0.075583     -0.021802 
 H52  H    -0.038358      0.451101      0.178143 
 H53  H    -0.050597      0.338229      0.205417 
 H54  H     0.082538      0.353113      0.137793 
 H55  H     0.020120      0.273697      0.094530 
 H56  H    -0.478921      0.016064     -0.144348 
 H57  H    -0.374436      0.023622     -0.125115 
 H58  H     0.497130     -0.100834     -0.051477 
 H59  H    -0.424173     -0.137876     -0.116263 
 H60  H    -0.397118     -0.092915     -0.033212 
 H61  H    -0.013794      0.391926      0.009283 
 H62  H     0.045266      0.474607      0.055309 
 H63  H     0.094587      0.376604      0.010969 
 N64  N    -0.005884      0.002990      0.322021 
 C65  C    -0.067562     -0.062365      0.295950 
 C66  C    -0.027542      0.095471      0.299860 
 C67  C     0.076305     -0.023368      0.288047 
 C68  C    -0.024360      0.096702      0.218074 
 H69  H    -0.090321      0.114214      0.322489 
 H70  H     0.014899      0.146444      0.321790 
 C71  C    -0.071391     -0.058851      0.214748 
 H72  H    -0.050633     -0.132104      0.310067 
 H73  H    -0.128734     -0.045601      0.322871 
 C74  C     0.073790     -0.028493      0.206481 
 H75  H     0.121533      0.027838      0.304915 
 H76  H     0.096220     -0.089888      0.306396 
 H77  H    -0.062252     -0.128080      0.188914 
 H78  H    -0.132736     -0.034048      0.201876 
 H79  H    -0.083205      0.123272      0.200980 
 H80  H     0.024566      0.142814      0.198505 
 H81  H     0.084478     -0.099965      0.185742 
 N82  N    -0.007659      0.003305      0.185671 
 H83  H     0.123389      0.012766      0.181915 
 C84  C     0.280263      0.280348      0.063468 
 C85  C     0.314265      0.304783     -0.002217 
 C86  C     0.285472      0.263863     -0.064124 
 C87  C     0.218089      0.204134     -0.059339 
 C88  C     0.182780      0.181241      0.006282 
 C89  C     0.215509      0.217055      0.068315 
 O90  O     0.322750      0.284573     -0.127863 
 C91  C     0.323318      0.217511     -0.185847 
 C92  C     0.257542      0.241630     -0.235319 
 C93  C     0.245323      0.166592     -0.293259 
 C94  C     0.322700      0.144391     -0.342538 
 O95  O     0.181550      0.190468      0.131742 
 C96  C     0.223251      0.206666      0.195071 
 C97  C     0.194336      0.297274      0.232872 
 C98  C     0.232620      0.315406      0.303445 
 C99  C     0.202789      0.405817      0.342098 
 H100  H     0.193048      0.175556     -0.107230 
 H101  H     0.303353      0.311828      0.111221 
 H102  H     0.207311      0.149453      0.228482 
 H103  H     0.290906      0.203662      0.183834 
 H104  H     0.385471      0.218699     -0.213083 
 H105  H     0.315078      0.147899     -0.166931 
 H106  H     0.208271      0.354969      0.199317 
 H107  H     0.126463      0.296524      0.242333 
 H108  H     0.197794      0.255658     -0.205278 
 H109  H     0.274220      0.306216     -0.259776 
 H110  H     0.223716      0.103601     -0.269008 
 H111  H     0.194919      0.188318     -0.324614 
 H112  H     0.217723      0.258206      0.337227 
 H113  H     0.300551      0.315541      0.294936 
 H114  H     0.135510      0.406015      0.354678 
 H115  H     0.232517      0.416903      0.391756 
 H116  H     0.217365      0.464660      0.310168 
 H117  H     0.345679      0.205959     -0.367913 
 H118  H     0.373236      0.116087     -0.314539 
 H119  H     0.308835      0.093422     -0.384470 
 C120  C     0.262443     -0.312078     -0.055564 
 C121  C     0.312053     -0.306968      0.001417 
 C122  C     0.295764     -0.241936      0.057704 
 C123  C     0.226095     -0.183880      0.057754 
 C124  C     0.175136     -0.190948      0.001422 
 C125  C     0.191402     -0.256988     -0.054236 
 O126  O     0.350239     -0.240024      0.109477 
 C127  C     0.354449     -0.163033      0.158971 
 C128  C     0.298461     -0.177735      0.224762 
 C129  C     0.319347     -0.116813      0.289213 
 C130  C     0.320537     -0.013679      0.277215 
 O131  O     0.142641     -0.270474     -0.109349 
 C132  C     0.059384     -0.300247     -0.092895 
 C133  C     0.058873     -0.397699     -0.067336 
 C134  C     0.102634     -0.471113     -0.118253 
 C135  C     0.067126     -0.480425     -0.190353 
 H136  H     0.212743     -0.132238      0.100591 
 H137  H     0.275267     -0.362116     -0.099557 
 H138  H     0.027173     -0.252831     -0.053032 
 H139  H     0.025892     -0.296339     -0.140761 
 H140  H     0.419538     -0.158438      0.171857 
 H141  H     0.339110     -0.098876      0.134601 
 H142  H     0.088012     -0.397216     -0.016973 
 H143  H    -0.005658     -0.418107     -0.055449 
 H144  H     0.233261     -0.166605      0.214326 
 H145  H     0.303563     -0.250120      0.237778 
 H146  H     0.274015     -0.129497      0.333237 
 H147  H     0.379802     -0.138315      0.306205 
 H148  H     0.169065     -0.456150     -0.125000 
 H149  H     0.098957      0.462105     -0.094115 
 H150  H     0.073834     -0.416497     -0.217854 
 H151  H     0.099576      0.464787     -0.223530 
 H152  H     0.001121     -0.497261     -0.185751 
 H153  H     0.333684      0.026299      0.325454 
 H154  H     0.368258      0.003096      0.236359 
 H155  H     0.260617      0.010197      0.261237 
 N156  N     0.494409      0.492410      0.314879 
 C157  C    -0.436840     -0.453145      0.284591 
 C158  C    -0.497893      0.397839      0.282683 
 C159  C     0.415732     -0.466969      0.295256 
 C160  C    -0.497354      0.398754      0.200949 
 H161  H    -0.440806      0.365345      0.298410 
 H162  H     0.450057      0.357035      0.303797 
 C163  C    -0.440725     -0.449869      0.203419 
 H164  H    -0.440335     -0.383016      0.309338 
 H165  H    -0.377783     -0.483895      0.297682 
 C166  C     0.412211     -0.469528      0.213758 
 H167  H     0.363458      0.495626      0.319750 
 H168  H     0.410666     -0.395383      0.317098 
 H169  H    -0.450500     -0.378518      0.189123 
 H170  H    -0.381817     -0.474301      0.175858 
 H171  H    -0.438084      0.370810      0.176445 
 H172  H     0.453623      0.354592      0.181009 
 H173  H     0.400533     -0.400056      0.196281 
 N174  N     0.490721      0.493464      0.178673 
 H175  H     0.360992      0.487136      0.196875 
 C176  C    -0.194373     -0.250115     -0.050924 
 C177  C    -0.197384     -0.181270      0.003304 
 C178  C    -0.265358     -0.173967      0.053503 
 C179  C    -0.328675     -0.239087      0.050050 
 C180  C    -0.324836     -0.308811     -0.003490 
 C181  C    -0.257757     -0.314872     -0.054313 
 O182  O    -0.267537     -0.103643      0.104492 
 C183  C    -0.345527     -0.077557      0.141059 
 C184  C    -0.334334      0.002434      0.194199 
 C185  C    -0.300105      0.090175      0.162586 
 C186  C    -0.292876      0.169551      0.217842 
 O187  O    -0.256644     -0.385346     -0.104815 
 C188  C    -0.183886     -0.402665     -0.150830 
 C189  C    -0.197373     -0.488986     -0.196987 
 C190  C    -0.213156      0.423451     -0.156926 
 C191  C    -0.138836      0.390707     -0.118976 
 H192  H    -0.381508     -0.235807      0.088905 
 H193  H    -0.141850     -0.254206     -0.090031 
 H194  H    -0.173041     -0.343274     -0.183316 
 H195  H    -0.130001     -0.411070     -0.119646 
 H196  H    -0.389197     -0.058755      0.102388 
 H197  H    -0.370961     -0.136358      0.168773 
 H198  H    -0.250084     -0.477053     -0.228866 
 H199  H    -0.143019      0.499159     -0.234344 
 H200  H    -0.394493      0.018684      0.222942 
 H201  H    -0.292964     -0.018979      0.233718 
 H202  H    -0.238806      0.075128      0.135440 
 H203  H    -0.339998      0.111665      0.121972 
 H204  H    -0.266971      0.434933     -0.118800 
 H205  H    -0.231097      0.368006     -0.194043 
 H206  H    -0.084521      0.376190     -0.155773 
 H207  H    -0.121403      0.441853     -0.078502 
 H208  H    -0.153183      0.327065     -0.092716 
 H209  H    -0.353366      0.188094      0.244843 
 H210  H    -0.250961      0.151518      0.257856 
 H211  H    -0.268461      0.231220      0.193605 
 Cu212  Cu    -0.007763      0.003424     -0.428530 
 Cu213  Cu     0.001099     -0.004135      0.434951 
 O214  O    -0.075238      0.102402      0.449613 
 C215  C    -0.119098      0.117852     -0.492948 
 O216  O    -0.106092      0.084100     -0.434629 
 O217  O     0.097009      0.080208      0.442498 
 C218  C     0.109517      0.121904     -0.498879 
 O219  O     0.068335      0.110244     -0.440751 
 O220  O    -0.097170     -0.085508      0.447159 
 C221  C    -0.116971     -0.121913     -0.494977 
 O222  O    -0.081846     -0.105224     -0.438173 
 O223  O     0.077106     -0.109953      0.441048 
 C224  C     0.111709     -0.120729      0.497855 
 O225  O     0.091410     -0.078286     -0.443362 
 Cu226  Cu     0.493443     -0.499217     -0.435271 
 Cu227  Cu    -0.499282      0.493657      0.428240 
 O228  O     0.403228     -0.422869      0.444597 
 C229  C     0.384220     -0.379433     -0.496771 
 O230  O     0.417949     -0.392080     -0.439804 
 O231  O    -0.424321     -0.397735      0.437647 
 C232  C    -0.389733     -0.379784      0.494564 
 O233  O    -0.408405     -0.417530     -0.447858 
 O234  O     0.423454      0.387399      0.439102 
 C235  C     0.384273      0.374598      0.497884 
 O236  O     0.397059      0.417092     -0.443924 
 O237  O    -0.402802      0.409719      0.432847 
 C238  C    -0.389656      0.374583      0.490634 
 O239  O    -0.431718      0.391682     -0.451212 
 C240  C    -0.328436      0.239148     -0.458095 
 C241  C    -0.320199      0.306170      0.492024 
 C242  C    -0.248194      0.310666      0.446923 
 C243  C    -0.184432      0.246339      0.452082 
 C244  C    -0.191741      0.181110     -0.497000 
 C245  C    -0.264061      0.175478     -0.452720 
 O246  O    -0.240848      0.379926      0.401263 
 C247  C    -0.164297      0.389288      0.359684 
 C248  C    -0.163132      0.482906      0.328253 
 C249  C    -0.165228     -0.435519      0.382884 
 C250  C    -0.090325     -0.430776      0.427765 
 O251  O    -0.267946      0.107792     -0.405787 
 C252  C    -0.347090      0.075151     -0.380498 
 C253  C    -0.331824     -0.014801     -0.346375 
 C254  C    -0.411261     -0.062305     -0.319607 
 C255  C    -0.394181     -0.153171     -0.286116 
 H256  H    -0.127774      0.248007      0.417683 
 H257  H    -0.384173      0.236798     -0.422748 
 H258  H    -0.376969      0.126550     -0.342257 
 H259  H    -0.386912      0.064648     -0.424571 
 H260  H    -0.111255      0.382690      0.392113 
 H261  H    -0.159684      0.333722      0.318095 
 H262  H    -0.296229     -0.062089     -0.384439 
 H263  H    -0.292344     -0.001908     -0.302381 
 H264  H    -0.107387      0.487858      0.292343 
 H265  H    -0.216311      0.488633      0.295849 
 H266  H    -0.169331     -0.371307      0.355656 
 H267  H    -0.222472     -0.438209      0.417297 
 H268  H    -0.446728     -0.015589     -0.281178 
 H269  H    -0.450794     -0.075242     -0.363562 
 H270  H    -0.451934     -0.184888     -0.266531 
 H271  H    -0.361931     -0.202738     -0.324256 
 H272  H    -0.355313     -0.142764     -0.241585 
 H273  H    -0.093438     -0.368521      0.463001 
 H274  H    -0.087559     -0.489850      0.460783 
 H275  H    -0.031894     -0.428997      0.395041 
 N276  N    -0.010936      0.006352     -0.177620 
 C277  C    -0.007280      0.101484     -0.201133 
 C278  C     0.061225     -0.045549     -0.211669 
 C279  C    -0.087009     -0.036303     -0.202302 
 C280  C     0.060403     -0.046155     -0.293306 
 H281  H     0.118258     -0.013882     -0.193965 
 H282  H     0.060285     -0.116397     -0.194168 
 C283  C    -0.006612      0.101791     -0.282977 
 H284  H    -0.060895      0.141098     -0.176273 
 H285  H     0.048480      0.134808     -0.182336 
 C286  C    -0.087776     -0.034642     -0.283901 
 H287  H    -0.090054     -0.107643     -0.186009 
 H288  H    -0.141584      0.000367     -0.176174 
 H289  H    -0.059026      0.142726     -0.298919 
 H290  H     0.050224      0.133794     -0.304822 
 H291  H     0.118003     -0.016787     -0.316256 
 H292  H     0.057225     -0.117267     -0.315706 
 H293  H    -0.141629      0.004746     -0.298820 
 N294  N    -0.011355      0.007030     -0.314197 
 H295  H    -0.093123     -0.104941     -0.307225 
 C296  C     0.245969      0.326260     -0.455200 
 C297  C     0.316476      0.304867      0.499860 
 C298  C     0.320391      0.222975      0.456957 
 C299  C     0.251139      0.166118      0.456468 
 C300  C     0.180527      0.187740     -0.498920 
 C301  C     0.177106      0.268341     -0.455141 
 O302  O     0.386890      0.194192      0.412674 
 C303  C     0.467366      0.193063      0.440134 
 C304  C    -0.496294      0.095887      0.431242 
 C305  C     0.455514      0.025147      0.474326 
 C306  C     0.494420     -0.071572      0.466296 
 O307  O     0.105207      0.286631     -0.414543 
 C308  C     0.091428      0.375573     -0.379990 
 C309  C     0.002344      0.380418     -0.348538 
 C310  C    -0.062248      0.365971     -0.403155 
 C311  C    -0.151824      0.376705     -0.371889 
 H312  H     0.254330      0.103450      0.422366 
 H313  H     0.243707      0.389446     -0.421670 
 H314  H     0.135163      0.385431     -0.338736 
 H315  H     0.102512      0.428988     -0.418061 
 H316  H    -0.493103      0.240817      0.410639 
 H317  H     0.464184      0.217314      0.495863 
 H318  H    -0.006468      0.328664     -0.308898 
 H319  H    -0.008835      0.447652     -0.320347 
 H320  H    -0.492965      0.072959      0.375250 
 H321  H    -0.431890      0.097633      0.446311 
 H322  H     0.451138      0.048841     -0.469862 
 H323  H     0.391432      0.021819      0.458670 
 H324  H    -0.051220      0.414813     -0.444586 
 H325  H    -0.053495      0.296929     -0.429224 
 H326  H    -0.195701      0.366191     -0.412719 
 H327  H    -0.166027      0.326425     -0.332128 
 H328  H    -0.163920      0.445713     -0.347266 
 H329  H     0.497037     -0.098871      0.411468 
 H330  H    -0.442164     -0.071988      0.483339 
 H331  H     0.458306     -0.119869      0.497954 
 C332  C     0.235284     -0.178240     -0.447248 
 C333  C     0.183488     -0.186849      0.497046 
 C334  C     0.197471     -0.256269      0.443560 
 C335  C     0.263612     -0.318112      0.447206 
 C336  C     0.314981     -0.310111     -0.496828 
 C337  C     0.301803     -0.239853     -0.443826 
 O338  O     0.145249     -0.261068      0.390064 
 C339  C     0.152472     -0.336060      0.338273 
 C340  C     0.088621     -0.321303      0.285044 
 C341  C     0.086455     -0.398729      0.227226 
 C342  C     0.165594     -0.408187      0.178094 
 O343  O     0.355961     -0.234836     -0.391738 
 C344  C     0.350610     -0.162995     -0.337146 
 C345  C     0.287175     -0.186860     -0.278336 
 C346  C     0.282588     -0.117924     -0.214281 
 C347  C     0.360782     -0.115185     -0.173385 
 H348  H     0.274460     -0.373258      0.406619 
 H349  H     0.223759     -0.123556     -0.406371 
 H350  H     0.412742     -0.157819     -0.317600 
 H351  H     0.336862     -0.096427     -0.358626 
 H352  H     0.215508     -0.338416      0.312596 
 H353  H     0.141279     -0.400669      0.364470 
 H354  H     0.225435     -0.191786     -0.298749 
 H355  H     0.301441     -0.255711     -0.260990 
 H356  H     0.026821     -0.313726      0.312938 
 H357  H     0.100533     -0.255733      0.260438 
 H358  H     0.074016     -0.464352      0.251599 
 H359  H     0.033572     -0.386167      0.195697 
 H360  H     0.269074     -0.048815     -0.231287 
 H361  H     0.229571     -0.135308     -0.178373 
 H362  H     0.415077     -0.093207     -0.205592 
 H363  H     0.352568     -0.066888     -0.127155 
 H364  H     0.375053     -0.182987     -0.154420 
 H365  H     0.178291     -0.344562      0.151213 
 H366  H     0.220055     -0.424277      0.206468 
 H367  H     0.160137     -0.463472      0.137300 
 N368  N     0.492058     -0.497140     -0.184307 
 C369  C    -0.465376     -0.415045     -0.210513 
 C370  C    -0.464694      0.420165     -0.217661 
 C371  C     0.406501     -0.495797     -0.207092 
 C372  C    -0.462673      0.421591     -0.299401 
 H373  H    -0.401260      0.417181     -0.200314 
 H374  H    -0.496555      0.358524     -0.199152 
 C375  C    -0.466722     -0.413637     -0.292100 
 H376  H    -0.495416     -0.352731     -0.184545 
 H377  H    -0.401029     -0.415737     -0.195198 
 C378  C     0.406897     -0.498011     -0.288888 
 H379  H     0.372433      0.445283     -0.186438 
 H380  H     0.374319     -0.433373     -0.183673 
 H381  H     0.499917     -0.352248     -0.307136 
 H382  H    -0.403127     -0.410387     -0.316415 
 H383  H    -0.398157      0.422568     -0.322079 
 H384  H    -0.490957      0.359033     -0.321737 
 H385  H     0.371831     -0.438969     -0.305874 
 N386  N     0.492692     -0.496565     -0.320871 
 H387  H     0.376443      0.439523     -0.308877 
 C388  C    -0.271778     -0.309246     -0.446585 
 C389  C    -0.320591     -0.310698      0.495605 
 C390  C    -0.303169     -0.250268      0.441554 
 C391  C    -0.238361     -0.187377      0.447766 
 C392  C    -0.188516     -0.187621     -0.495363 
 C393  C    -0.204169     -0.249984     -0.442836 
 O394  O    -0.349646     -0.254665      0.384112 
 C395  C    -0.334617     -0.192669      0.328708 
 C396  C    -0.257385     -0.219554      0.280836 
 C397  C    -0.265299     -0.309312      0.236127 
 C398  C    -0.187251     -0.334558      0.188560 
 O399  O    -0.152454     -0.251283     -0.389384 
 C400  C    -0.141657     -0.335960     -0.356331 
 C401  C    -0.055999     -0.336738     -0.328270 
 C402  C     0.014709     -0.333042     -0.386133 
 C403  C     0.100998     -0.344508     -0.359407 
 H404  H    -0.225615     -0.138079      0.407579 
 H405  H    -0.284884     -0.355627     -0.404457 
 H406  H    -0.190575     -0.340630     -0.313711 
 H407  H    -0.147676     -0.394760     -0.394319 
 H408  H    -0.389769     -0.194716      0.298171 
 H409  H    -0.331123     -0.121848      0.351430 
 H410  H    -0.050764     -0.278394     -0.289811 
 H411  H    -0.048739     -0.399178     -0.299417 
 H412  H    -0.243144     -0.163992      0.245422 
 H413  H    -0.203029     -0.225443      0.311786 
 H414  H    -0.279683     -0.365408      0.270990 
 H415  H    -0.318155     -0.303263      0.203486 
 H416  H     0.005849     -0.386784     -0.427559 
 H417  H     0.011260     -0.267155     -0.411490 
 H418  H     0.108515     -0.411601     -0.337078 
 H419  H     0.149324     -0.339939     -0.402323 
 H420  H     0.112769     -0.290979     -0.318780 
 H421  H    -0.133383     -0.344204      0.219372 
 H422  H    -0.195667     -0.398597      0.156955 
 H423  H    -0.172112     -0.280570      0.151977 
loop_  
_geom_bond_atom_site_label_1  
_geom_bond_atom_site_label_2  
Cu0   Cu1 
Cu0   O4 
Cu0   O7 
Cu0   O10 
Cu0   O13 
Cu0   N82 
Cu1   O2 
Cu1   O5 
Cu1   O8 
Cu1   O11 
Cu1   N276 
O2   C3 
C3   O4 
C3   C29 
O5   C6 
C6   O7 
C6   C88 
O8   C9 
C9   O10 
C9   C177 
O11   C12 
C12   O13 
C12   C124 
Cu14   Cu15 
Cu14   O18 
Cu14   O21 
Cu14   O24 
Cu14   O27 
Cu14   N174 
Cu15   O16 
Cu15   O19 
Cu15   O22 
Cu15   O25 
Cu15   N368 
O16   C17 
C17   O18 
C17   C121 
O19   C20 
C20   O21 
C20   C180 
O22   C23 
C23   O24 
C23   C85 
O25   C26 
C26   O27 
C26   C32 
C28   C29 
C28   C33 
C28   H45 
C29   C30 
C30   C31 
C30   O34 
C31   C32 
C31   H44 
C32   C33 
C33   O39 
O34   C35 
C35   C36 
C35   H48 
C35   H49 
C36   C37 
C36   H52 
C36   H53 
C37   C38 
C37   H54 
C37   H55 
C38   H61 
C38   H62 
C38   H63 
O39   C40 
C40   C41 
C40   H46 
C40   H47 
C41   C42 
C41   H50 
C41   H51 
C42   C43 
C42   H56 
C42   H57 
C43   H58 
C43   H59 
C43   H60 
N64   C65 
N64   C66 
N64   C67 
N64   Cu213 
C65   C71 
C65   H72 
C65   H73 
C66   C68 
C66   H69 
C66   H70 
C67   C74 
C67   H75 
C67   H76 
C68   H79 
C68   H80 
C68   N82 
C71   H77 
C71   H78 
C71   N82 
C74   H81 
C74   N82 
C74   H83 
C84   C85 
C84   C89 
C84   H101 
C85   C86 
C86   C87 
C86   O90 
C87   C88 
C87   H100 
C88   C89 
C89   O95 
O90   C91 
C91   C92 
C91   H104 
C91   H105 
C92   C93 
C92   H108 
C92   H109 
C93   C94 
C93   H110 
C93   H111 
C94   H117 
C94   H118 
C94   H119 
O95   C96 
C96   C97 
C96   H102 
C96   H103 
C97   C98 
C97   H106 
C97   H107 
C98   C99 
C98   H112 
C98   H113 
C99   H114 
C99   H115 
C99   H116 
C120   C121 
C120   C125 
C120   H137 
C121   C122 
C122   C123 
C122   O126 
C123   C124 
C123   H136 
C124   C125 
C125   O131 
O126   C127 
C127   C128 
C127   H140 
C127   H141 
C128   C129 
C128   H144 
C128   H145 
C129   C130 
C129   H146 
C129   H147 
C130   H153 
C130   H154 
C130   H155 
O131   C132 
C132   C133 
C132   H138 
C132   H139 
C133   C134 
C133   H142 
C133   H143 
C134   C135 
C134   H148 
C134   H149 
C135   H150 
C135   H151 
C135   H152 
N156   C157 
N156   C158 
N156   C159 
N156   Cu227 
C157   C163 
C157   H164 
C157   H165 
C158   C160 
C158   H161 
C158   H162 
C159   C166 
C159   H167 
C159   H168 
C160   H171 
C160   H172 
C160   N174 
C163   H169 
C163   H170 
C163   N174 
C166   H173 
C166   N174 
C166   H175 
C176   C177 
C176   C181 
C176   H193 
C177   C178 
C178   C179 
C178   O182 
C179   C180 
C179   H192 
C180   C181 
C181   O187 
O182   C183 
C183   C184 
C183   H196 
C183   H197 
C184   C185 
C184   H200 
C184   H201 
C185   C186 
C185   H202 
C185   H203 
C186   H209 
C186   H210 
C186   H211 
O187   C188 
C188   C189 
C188   H194 
C188   H195 
C189   C190 
C189   H198 
C189   H199 
C190   C191 
C190   H204 
C190   H205 
C191   H206 
C191   H207 
C191   H208 
Cu212   Cu213 
Cu212   O216 
Cu212   O219 
Cu212   O222 
Cu212   O225 
Cu212   N294 
Cu213   O214 
Cu213   O217 
Cu213   O220 
Cu213   O223 
O214   C215 
C215   O216 
C215   C244 
O217   C218 
C218   O219 
C218   C300 
O220   C221 
C221   O222 
C221   C392 
O223   C224 
C224   O225 
C224   C333 
Cu226   Cu227 
Cu226   O230 
Cu226   O233 
Cu226   O236 
Cu226   O239 
Cu226   N386 
Cu227   O228 
Cu227   O231 
Cu227   O234 
Cu227   O237 
O228   C229 
C229   O230 
C229   C336 
O231   C232 
C232   O233 
C232   C389 
O234   C235 
C235   O236 
C235   C297 
O237   C238 
C238   O239 
C238   C241 
C240   C241 
C240   C245 
C240   H257 
C241   C242 
C242   C243 
C242   O246 
C243   C244 
C243   H256 
C244   C245 
C245   O251 
O246   C247 
C247   C248 
C247   H260 
C247   H261 
C248   C249 
C248   H264 
C248   H265 
C249   C250 
C249   H266 
C249   H267 
C250   H273 
C250   H274 
C250   H275 
O251   C252 
C252   C253 
C252   H258 
C252   H259 
C253   C254 
C253   H262 
C253   H263 
C254   C255 
C254   H268 
C254   H269 
C255   H270 
C255   H271 
C255   H272 
N276   C277 
N276   C278 
N276   C279 
C277   C283 
C277   H284 
C277   H285 
C278   C280 
C278   H281 
C278   H282 
C279   C286 
C279   H287 
C279   H288 
C280   H291 
C280   H292 
C280   N294 
C283   H289 
C283   H290 
C283   N294 
C286   H293 
C286   N294 
C286   H295 
C296   C297 
C296   C301 
C296   H313 
C297   C298 
C298   C299 
C298   O302 
C299   C300 
C299   H312 
C300   C301 
C301   O307 
O302   C303 
C303   C304 
C303   H316 
C303   H317 
C304   C305 
C304   H320 
C304   H321 
C305   C306 
C305   H322 
C305   H323 
C306   H329 
C306   H330 
C306   H331 
O307   C308 
C308   C309 
C308   H314 
C308   H315 
C309   C310 
C309   H318 
C309   H319 
C310   C311 
C310   H324 
C310   H325 
C311   H326 
C311   H327 
C311   H328 
C332   C333 
C332   C337 
C332   H349 
C333   C334 
C334   C335 
C334   O338 
C335   C336 
C335   H348 
C336   C337 
C337   O343 
O338   C339 
C339   C340 
C339   H352 
C339   H353 
C340   C341 
C340   H356 
C340   H357 
C341   C342 
C341   H358 
C341   H359 
C342   H365 
C342   H366 
C342   H367 
O343   C344 
C344   C345 
C344   H350 
C344   H351 
C345   C346 
C345   H354 
C345   H355 
C346   C347 
C346   H360 
C346   H361 
C347   H362 
C347   H363 
C347   H364 
N368   C369 
N368   C370 
N368   C371 
C369   C375 
C369   H376 
C369   H377 
C370   C372 
C370   H373 
C370   H374 
C371   C378 
C371   H379 
C371   H380 
C372   H383 
C372   H384 
C372   N386 
C375   H381 
C375   H382 
C375   N386 
C378   H385 
C378   N386 
C378   H387 
C388   C389 
C388   C393 
C388   H405 
C389   C390 
C390   C391 
C390   O394 
C391   C392 
C391   H404 
C392   C393 
C393   O399 
O394   C395 
C395   C396 
C395   H408 
C395   H409 
C396   C397 
C396   H412 
C396   H413 
C397   C398 
C397   H414 
C397   H415 
C398   H421 
C398   H422 
C398   H423 
O399   C400 
C400   C401 
C400   H406 
C400   H407 
C401   C402 
C401   H410 
C401   H411 
C402   C403 
C402   H416 
C402   H417 
C403   H418 
C403   H419 
C403   H420 
  
#END  
